<?xml version="1.0" encoding="UTF-8"?>

<!-- generated on 2024-10-20 15:32:05 by Eclipse SUMO netconvert Version 1.19.0
<configuration xmlns:xsi="http://www.w3.org/2001/XMLSchema-instance" xsi:noNamespaceSchemaLocation="http://sumo.dlr.de/xsd/netconvertConfiguration.xsd">

    <input>
        <osm-files value="C:\Users\MONSTER\Documents\GitHub\SUMOScripts\SUMO-1\my_data2\osm\Buyukorhan.osm.xml"/>
    </input>

    <output>
        <output-file value="C:\Users\MONSTER\Documents\GitHub\SUMOScripts\SUMO-1\my_data2\osm\Buyukorhan.net.xml"/>
    </output>

    <projection>
        <proj.utm value="true"/>
    </projection>

</configuration>
-->

<net version="1.16" junctionCornerDetail="5" limitTurnSpeed="5.50" xmlns:xsi="http://www.w3.org/2001/XMLSchema-instance" xsi:noNamespaceSchemaLocation="http://sumo.dlr.de/xsd/net_file.xsd">

    <location netOffset="-658541.04,-4402681.54" convBoundary="0.00,0.00,4767.11,2754.98" origBoundary="28.850974,39.758420,28.923407,39.783384" projParameter="+proj=utm +zone=35 +ellps=WGS84 +datum=WGS84 +units=m +no_defs"/>

    <type id="highway.residential" priority="3" numLanes="1" speed="13.89" disallow="tram rail_urban rail rail_electric rail_fast ship" oneway="0"/>
    <type id="highway.secondary" priority="11" numLanes="1" speed="27.78" disallow="tram rail_urban rail rail_electric rail_fast ship" oneway="0"/>
    <type id="highway.service" priority="1" numLanes="1" speed="5.56" allow="pedestrian delivery bicycle" oneway="0"/>
    <type id="highway.tertiary" priority="10" numLanes="1" speed="22.22" disallow="tram rail_urban rail rail_electric rail_fast ship" oneway="0"/>
    <type id="highway.track" priority="1" numLanes="1" speed="5.56" allow="pedestrian motorcycle moped bicycle" oneway="0"/>
    <type id="highway.unclassified" priority="4" numLanes="1" speed="13.89" disallow="tram rail_urban rail rail_electric rail_fast ship" oneway="0"/>

    <edge id=":1626961244_0" function="internal">
        <lane id=":1626961244_0_0" index="0" disallow="tram rail_urban rail rail_electric rail_fast ship" speed="9.75" length="19.66" shape="3071.55,1261.12 3068.88,1259.87 3065.08,1260.43 3060.13,1262.80 3054.05,1266.98"/>
    </edge>
    <edge id=":1626961244_1" function="internal">
        <lane id=":1626961244_1_0" index="0" disallow="tram rail_urban rail rail_electric rail_fast ship" speed="12.16" length="21.75" shape="3071.55,1261.12 3068.55,1259.40 3064.05,1258.89 3058.06,1259.59 3050.57,1261.49"/>
    </edge>
    <edge id=":1626961244_2" function="internal">
        <lane id=":1626961244_2_0" index="0" disallow="tram rail_urban rail rail_electric rail_fast ship" speed="7.87" length="14.48" shape="3071.55,1261.12 3069.20,1257.88 3068.52,1254.72 3069.52,1251.65 3072.20,1248.66"/>
    </edge>
    <edge id=":1626961244_3" function="internal">
        <lane id=":1626961244_3_0" index="0" disallow="tram rail_urban rail rail_electric rail_fast ship" speed="3.65" length="4.67" shape="3071.55,1261.12 3071.29,1259.70 3071.58,1258.86 3072.44,1258.59 3073.85,1258.89"/>
    </edge>
    <edge id=":1626961244_4" function="internal">
        <lane id=":1626961244_4_0" index="0" disallow="tram rail_urban rail rail_electric rail_fast ship" speed="6.35" length="9.04" shape="3074.25,1251.11 3072.58,1252.98 3071.95,1254.90 3072.38,1256.87 3073.85,1258.89"/>
    </edge>
    <edge id=":1626961244_5" function="internal">
        <lane id=":1626961244_5_0" index="0" disallow="tram rail_urban rail rail_electric rail_fast ship" speed="22.22" length="25.69" shape="3074.25,1251.11 3054.05,1266.98"/>
    </edge>
    <edge id=":1626961244_6" function="internal">
        <lane id=":1626961244_6_0" index="0" disallow="tram rail_urban rail rail_electric rail_fast ship" speed="18.05" length="5.41" shape="3074.25,1251.11 3069.60,1253.88"/>
    </edge>
    <edge id=":1626961244_7" function="internal">
        <lane id=":1626961244_7_0" index="0" disallow="tram rail_urban rail rail_electric rail_fast ship" speed="3.65" length="1.44" shape="3074.25,1251.11 3072.82,1251.27"/>
    </edge>
    <edge id=":1626961244_16" function="internal">
        <lane id=":1626961244_16_0" index="0" disallow="tram rail_urban rail rail_electric rail_fast ship" speed="18.05" length="20.51" shape="3069.60,1253.88 3062.76,1256.96 3055.75,1259.71 3050.57,1261.49"/>
    </edge>
    <edge id=":1626961244_17" function="internal">
        <lane id=":1626961244_17_0" index="0" disallow="tram rail_urban rail rail_electric rail_fast ship" speed="3.65" length="3.23" shape="3072.82,1251.27 3072.00,1250.91 3071.79,1250.04 3072.20,1248.66"/>
    </edge>
    <edge id=":1626961244_8" function="internal">
        <lane id=":1626961244_8_0" index="0" disallow="tram rail_urban rail rail_electric rail_fast ship" speed="18.05" length="24.65" shape="3049.64,1258.43 3054.64,1256.74 3061.27,1254.20 3067.73,1251.34 3072.20,1248.66"/>
    </edge>
    <edge id=":1626961244_9" function="internal">
        <lane id=":1626961244_9_0" index="0" disallow="tram rail_urban rail rail_electric rail_fast ship" speed="13.06" length="25.21" shape="3049.64,1258.43 3058.03,1256.37 3064.86,1255.76 3070.13,1256.60 3073.85,1258.89"/>
    </edge>
    <edge id=":1626961244_10" function="internal">
        <lane id=":1626961244_10_0" index="0" disallow="tram rail_urban rail rail_electric rail_fast ship" speed="5.78" length="13.29" shape="3049.64,1258.43 3053.08,1258.65 3055.35,1260.90 3055.87,1264.06 3054.05,1266.98"/>
    </edge>
    <edge id=":1626961244_11" function="internal">
        <lane id=":1626961244_11_0" index="0" disallow="tram rail_urban rail rail_electric rail_fast ship" speed="3.65" length="4.67" shape="3049.64,1258.43 3051.02,1258.84 3051.63,1259.49 3051.48,1260.38 3050.57,1261.49"/>
    </edge>
    <edge id=":1626961244_12" function="internal">
        <lane id=":1626961244_12_0" index="0" disallow="tram rail_urban rail rail_electric rail_fast ship" speed="5.11" length="9.93" shape="3052.10,1264.44 3054.79,1262.13 3055.43,1260.87 3054.02,1260.65 3050.57,1261.49"/>
    </edge>
    <edge id=":1626961244_13" function="internal">
        <lane id=":1626961244_13_0" index="0" disallow="tram rail_urban rail rail_electric rail_fast ship" speed="22.22" length="25.55" shape="3052.10,1264.44 3072.20,1248.66"/>
    </edge>
    <edge id=":1626961244_14" function="internal">
        <lane id=":1626961244_14_0" index="0" disallow="tram rail_urban rail rail_electric rail_fast ship" speed="10.58" length="8.76" shape="3052.10,1264.44 3057.57,1261.21 3059.82,1260.36"/>
    </edge>
    <edge id=":1626961244_15" function="internal">
        <lane id=":1626961244_15_0" index="0" disallow="tram rail_urban rail rail_electric rail_fast ship" speed="3.65" length="1.44" shape="3052.10,1264.44 3053.54,1264.35"/>
    </edge>
    <edge id=":1626961244_18" function="internal">
        <lane id=":1626961244_18_0" index="0" disallow="tram rail_urban rail rail_electric rail_fast ship" speed="10.58" length="14.55" shape="3059.82,1260.36 3064.04,1258.77 3069.98,1257.78 3073.85,1258.89"/>
    </edge>
    <edge id=":1626961244_19" function="internal">
        <lane id=":1626961244_19_0" index="0" disallow="tram rail_urban rail rail_electric rail_fast ship" speed="3.65" length="3.23" shape="3053.54,1264.35 3054.35,1264.74 3054.52,1265.62 3054.05,1266.98"/>
    </edge>
    <edge id=":1626961249_0" function="internal">
        <lane id=":1626961249_0_0" index="0" disallow="tram rail_urban rail rail_electric rail_fast ship" speed="13.89" length="12.53" shape="2874.22,1265.56 2870.92,1264.81 2868.04,1264.39 2865.16,1264.41 2861.86,1264.98"/>
    </edge>
    <edge id=":1626961249_1" function="internal">
        <lane id=":1626961249_1_0" index="0" disallow="tram rail_urban rail rail_electric rail_fast ship" speed="7.67" length="4.02" shape="2874.22,1265.56 2870.49,1264.07"/>
    </edge>
    <edge id=":1626961249_2" function="internal">
        <lane id=":1626961249_2_0" index="0" disallow="tram rail_urban rail rail_electric rail_fast ship" speed="3.65" length="1.44" shape="2874.22,1265.56 2873.24,1264.50"/>
    </edge>
    <edge id=":1626961249_9" function="internal">
        <lane id=":1626961249_9_0" index="0" disallow="tram rail_urban rail rail_electric rail_fast ship" speed="7.67" length="11.07" shape="2870.49,1264.07 2870.25,1263.97 2868.04,1261.56 2867.59,1258.32 2868.90,1254.25"/>
    </edge>
    <edge id=":1626961249_10" function="internal">
        <lane id=":1626961249_10_0" index="0" disallow="tram rail_urban rail rail_electric rail_fast ship" speed="3.65" length="3.23" shape="2873.24,1264.50 2873.04,1263.63 2873.62,1262.94 2874.97,1262.45"/>
    </edge>
    <edge id=":1626961249_3" function="internal">
        <lane id=":1626961249_3_0" index="0" disallow="tram rail_urban rail rail_electric rail_fast ship" speed="6.09" length="9.06" shape="2871.77,1255.66 2870.99,1258.10 2871.26,1260.05 2872.59,1261.50 2874.97,1262.45"/>
    </edge>
    <edge id=":1626961249_4" function="internal">
        <lane id=":1626961249_4_0" index="0" disallow="tram rail_urban rail rail_electric rail_fast ship" speed="11.37" length="14.05" shape="2871.77,1255.66 2869.72,1259.18 2867.38,1261.91 2864.76,1263.84 2861.86,1264.98"/>
    </edge>
    <edge id=":1626961249_5" function="internal">
        <lane id=":1626961249_5_0" index="0" disallow="tram rail_urban rail rail_electric rail_fast ship" speed="3.65" length="4.67" shape="2871.77,1255.66 2870.53,1256.38 2869.63,1256.39 2869.09,1255.68 2868.90,1254.25"/>
    </edge>
    <edge id=":1626961249_6" function="internal">
        <lane id=":1626961249_6_0" index="0" disallow="tram rail_urban rail rail_electric rail_fast ship" speed="10.21" length="11.23" shape="2861.11,1261.87 2863.33,1260.97 2865.37,1259.41 2867.22,1257.17 2868.90,1254.25"/>
    </edge>
    <edge id=":1626961249_7" function="internal">
        <lane id=":1626961249_7_0" index="0" disallow="tram rail_urban rail rail_electric rail_fast ship" speed="13.89" length="14.01" shape="2861.11,1261.87 2864.64,1261.30 2868.04,1261.28 2871.44,1261.70 2874.97,1262.45"/>
    </edge>
    <edge id=":1626961249_8" function="internal">
        <lane id=":1626961249_8_0" index="0" disallow="tram rail_urban rail rail_electric rail_fast ship" speed="3.65" length="1.44" shape="2861.11,1261.87 2862.46,1262.36"/>
    </edge>
    <edge id=":1626961249_11" function="internal">
        <lane id=":1626961249_11_0" index="0" disallow="tram rail_urban rail rail_electric rail_fast ship" speed="3.65" length="3.23" shape="2862.46,1262.36 2863.04,1263.05 2862.84,1263.92 2861.86,1264.98"/>
    </edge>
    <edge id=":1626961330_0" function="internal">
        <lane id=":1626961330_0_0" index="0" disallow="tram rail_urban rail rail_electric rail_fast ship" speed="6.23" length="7.53" shape="2686.95,1344.72 2686.39,1342.99 2685.27,1341.78 2683.58,1341.09 2681.35,1340.93"/>
    </edge>
    <edge id=":1626961330_1" function="internal">
        <lane id=":1626961330_1_0" index="0" disallow="tram rail_urban rail rail_electric rail_fast ship" speed="13.15" length="11.62" shape="2686.95,1344.72 2686.63,1341.50 2686.79,1338.93 2687.53,1336.46 2688.95,1333.56"/>
    </edge>
    <edge id=":1626961330_2" function="internal">
        <lane id=":1626961330_2_0" index="0" disallow="tram rail_urban rail rail_electric rail_fast ship" speed="3.65" length="1.44" shape="2686.95,1344.72 2687.58,1343.42"/>
    </edge>
    <edge id=":1626961330_9" function="internal">
        <lane id=":1626961330_9_0" index="0" disallow="tram rail_urban rail rail_electric rail_fast ship" speed="3.65" length="3.23" shape="2687.58,1343.42 2688.31,1342.91 2689.16,1343.19 2690.12,1344.26"/>
    </edge>
    <edge id=":1626961330_3" function="internal">
        <lane id=":1626961330_3_0" index="0" disallow="tram rail_urban rail rail_electric rail_fast ship" speed="11.99" length="9.61" shape="2691.76,1335.09 2690.47,1337.60 2689.86,1339.48 2689.78,1341.46 2690.12,1344.26"/>
    </edge>
    <edge id=":1626961330_4" function="internal">
        <lane id=":1626961330_4_0" index="0" disallow="tram rail_urban rail rail_electric rail_fast ship" speed="9.66" length="3.32" shape="2691.76,1335.09 2689.97,1337.54 2689.74,1337.71"/>
    </edge>
    <edge id=":1626961330_5" function="internal">
        <lane id=":1626961330_5_0" index="0" disallow="tram rail_urban rail rail_electric rail_fast ship" speed="3.65" length="1.44" shape="2691.76,1335.09 2690.48,1335.76"/>
    </edge>
    <edge id=":1626961330_10" function="internal">
        <lane id=":1626961330_10_0" index="0" disallow="tram rail_urban rail rail_electric rail_fast ship" speed="9.66" length="9.19" shape="2689.74,1337.71 2687.64,1339.33 2684.77,1340.46 2681.35,1340.93"/>
    </edge>
    <edge id=":1626961330_11" function="internal">
        <lane id=":1626961330_11_0" index="0" disallow="tram rail_urban rail rail_electric rail_fast ship" speed="3.65" length="3.23" shape="2690.48,1335.76 2689.59,1335.73 2689.08,1334.99 2688.95,1333.56"/>
    </edge>
    <edge id=":1626961330_6" function="internal">
        <lane id=":1626961330_6_0" index="0" disallow="tram rail_urban rail rail_electric rail_fast ship" speed="8.35" length="9.19" shape="2681.23,1337.73 2683.79,1337.39 2685.94,1336.58 2687.65,1335.30 2688.95,1333.56"/>
    </edge>
    <edge id=":1626961330_7" function="internal">
        <lane id=":1626961330_7_0" index="0" disallow="tram rail_urban rail rail_electric rail_fast ship" speed="7.79" length="12.30" shape="2681.23,1337.73 2684.75,1338.02 2687.41,1339.21 2689.20,1341.29 2690.12,1344.26"/>
    </edge>
    <edge id=":1626961330_8" function="internal">
        <lane id=":1626961330_8_0" index="0" disallow="tram rail_urban rail rail_electric rail_fast ship" speed="3.65" length="4.67" shape="2681.23,1337.73 2682.45,1338.48 2682.88,1339.27 2682.51,1340.08 2681.35,1340.93"/>
    </edge>
    <edge id=":1626961441_0" function="internal">
        <lane id=":1626961441_0_0" index="0" disallow="tram rail_urban rail rail_electric rail_fast ship" speed="6.72" length="9.22" shape="2652.15,1517.86 2651.74,1515.36 2650.66,1513.54 2648.91,1512.40 2646.47,1511.94"/>
    </edge>
    <edge id=":1626961441_1" function="internal">
        <lane id=":1626961441_1_0" index="0" disallow="tram rail_urban rail rail_electric rail_fast ship" speed="13.89" length="14.96" shape="2652.15,1517.86 2652.12,1514.11 2652.20,1510.38 2652.39,1506.65 2652.68,1502.91"/>
    </edge>
    <edge id=":1626961441_2" function="internal">
        <lane id=":1626961441_2_0" index="0" disallow="tram rail_urban rail rail_electric rail_fast ship" speed="8.11" length="14.52" shape="2652.15,1517.86 2652.63,1514.00 2654.29,1511.21 2657.13,1509.48 2661.14,1508.82"/>
    </edge>
    <edge id=":1626961441_3" function="internal">
        <lane id=":1626961441_3_0" index="0" disallow="tram rail_urban rail rail_electric rail_fast ship" speed="3.65" length="4.67" shape="2652.15,1517.86 2652.92,1516.64 2653.71,1516.22 2654.52,1516.60 2655.35,1517.78"/>
    </edge>
    <edge id=":1626961441_4" function="internal">
        <lane id=":1626961441_4_0" index="0" disallow="tram rail_urban rail rail_electric rail_fast ship" speed="6.63" length="9.38" shape="2661.24,1512.02 2658.61,1512.44 2656.75,1513.55 2655.67,1515.33 2655.35,1517.78"/>
    </edge>
    <edge id=":1626961441_5" function="internal">
        <lane id=":1626961441_5_0" index="0" disallow="tram rail_urban rail rail_electric rail_fast ship" speed="22.22" length="14.76" shape="2661.24,1512.02 2646.47,1511.94"/>
    </edge>
    <edge id=":1626961441_6" function="internal">
        <lane id=":1626961441_6_0" index="0" disallow="tram rail_urban rail rail_electric rail_fast ship" speed="7.80" length="4.44" shape="2661.24,1512.02 2657.17,1511.55 2656.87,1511.37"/>
    </edge>
    <edge id=":1626961441_7" function="internal">
        <lane id=":1626961441_7_0" index="0" disallow="tram rail_urban rail rail_electric rail_fast ship" speed="3.65" length="1.44" shape="2661.24,1512.02 2660.01,1511.25"/>
    </edge>
    <edge id=":1626961441_16" function="internal">
        <lane id=":1626961441_16_0" index="0" disallow="tram rail_urban rail rail_electric rail_fast ship" speed="7.80" length="10.23" shape="2656.87,1511.37 2654.39,1509.88 2652.89,1507.00 2652.68,1502.91"/>
    </edge>
    <edge id=":1626961441_17" function="internal">
        <lane id=":1626961441_17_0" index="0" disallow="tram rail_urban rail rail_electric rail_fast ship" speed="3.65" length="3.23" shape="2660.01,1511.25 2659.59,1510.46 2659.97,1509.65 2661.14,1508.82"/>
    </edge>
    <edge id=":1626961441_8" function="internal">
        <lane id=":1626961441_8_0" index="0" disallow="tram rail_urban rail rail_electric rail_fast ship" speed="6.26" length="9.04" shape="2655.87,1503.21 2656.00,1505.73 2656.92,1507.50 2658.64,1508.53 2661.14,1508.82"/>
    </edge>
    <edge id=":1626961441_9" function="internal">
        <lane id=":1626961441_9_0" index="0" disallow="tram rail_urban rail rail_electric rail_fast ship" speed="13.89" length="14.59" shape="2655.87,1503.21 2655.58,1506.88 2655.39,1510.49 2655.32,1514.10 2655.35,1517.78"/>
    </edge>
    <edge id=":1626961441_10" function="internal">
        <lane id=":1626961441_10_0" index="0" disallow="tram rail_urban rail rail_electric rail_fast ship" speed="8.22" length="14.47" shape="2655.87,1503.21 2654.97,1507.16 2653.10,1509.94 2650.27,1511.53 2646.47,1511.94"/>
    </edge>
    <edge id=":1626961441_11" function="internal">
        <lane id=":1626961441_11_0" index="0" disallow="tram rail_urban rail rail_electric rail_fast ship" speed="3.65" length="4.67" shape="2655.87,1503.21 2654.96,1504.33 2654.13,1504.65 2653.37,1504.18 2652.68,1502.91"/>
    </edge>
    <edge id=":1626961441_12" function="internal">
        <lane id=":1626961441_12_0" index="0" disallow="tram rail_urban rail rail_electric rail_fast ship" speed="6.77" length="9.49" shape="2646.61,1508.75 2649.06,1508.47 2650.88,1507.40 2652.09,1505.55 2652.68,1502.91"/>
    </edge>
    <edge id=":1626961441_13" function="internal">
        <lane id=":1626961441_13_0" index="0" disallow="tram rail_urban rail rail_electric rail_fast ship" speed="22.22" length="14.53" shape="2646.61,1508.75 2661.14,1508.82"/>
    </edge>
    <edge id=":1626961441_14" function="internal">
        <lane id=":1626961441_14_0" index="0" disallow="tram rail_urban rail rail_electric rail_fast ship" speed="8.18" length="3.81" shape="2646.61,1508.75 2650.35,1509.45"/>
    </edge>
    <edge id=":1626961441_15" function="internal">
        <lane id=":1626961441_15_0" index="0" disallow="tram rail_urban rail rail_electric rail_fast ship" speed="3.65" length="1.44" shape="2646.61,1508.75 2647.77,1509.60"/>
    </edge>
    <edge id=":1626961441_18" function="internal">
        <lane id=":1626961441_18_0" index="0" disallow="tram rail_urban rail rail_electric rail_fast ship" speed="8.18" length="10.32" shape="2650.35,1509.45 2653.06,1511.19 2654.72,1513.96 2655.35,1517.78"/>
    </edge>
    <edge id=":1626961441_19" function="internal">
        <lane id=":1626961441_19_0" index="0" disallow="tram rail_urban rail rail_electric rail_fast ship" speed="3.65" length="3.23" shape="2647.77,1509.60 2648.14,1510.41 2647.71,1511.19 2646.47,1511.94"/>
    </edge>
    <edge id=":1626961469_0" function="internal">
        <lane id=":1626961469_0_0" index="0" disallow="tram rail_urban rail rail_electric rail_fast ship" speed="22.22" length="15.26" shape="2929.14,1611.50 2926.68,1626.55"/>
    </edge>
    <edge id=":1626961469_1" function="internal">
        <lane id=":1626961469_1_0" index="0" disallow="tram rail_urban rail rail_electric rail_fast ship" speed="10.03" length="3.71" shape="2929.14,1611.50 2928.09,1614.75 2927.91,1614.98"/>
    </edge>
    <edge id=":1626961469_2" function="internal">
        <lane id=":1626961469_2_0" index="0" disallow="tram rail_urban rail rail_electric rail_fast ship" speed="3.65" length="1.44" shape="2929.14,1611.50 2928.18,1612.57"/>
    </edge>
    <edge id=":1626961469_9" function="internal">
        <lane id=":1626961469_9_0" index="0" disallow="tram rail_urban rail rail_electric rail_fast ship" speed="10.03" length="11.75" shape="2927.91,1614.98 2925.94,1617.48 2922.70,1619.68 2918.36,1621.36"/>
    </edge>
    <edge id=":1626961469_10" function="internal">
        <lane id=":1626961469_10_0" index="0" disallow="tram rail_urban rail rail_electric rail_fast ship" speed="3.65" length="3.23" shape="2928.18,1612.57 2927.33,1612.85 2926.60,1612.35 2925.98,1611.04"/>
    </edge>
    <edge id=":1626961469_3" function="internal">
        <lane id=":1626961469_3_0" index="0" disallow="tram rail_urban rail rail_electric rail_fast ship" speed="8.82" length="11.79" shape="2917.47,1618.28 2920.92,1616.98 2923.49,1615.34 2925.17,1613.36 2925.98,1611.04"/>
    </edge>
    <edge id=":1626961469_4" function="internal">
        <lane id=":1626961469_4_0" index="0" disallow="tram rail_urban rail rail_electric rail_fast ship" speed="7.44" length="16.36" shape="2917.47,1618.28 2922.26,1617.58 2925.40,1618.72 2926.87,1621.71 2926.68,1626.55"/>
    </edge>
    <edge id=":1626961469_5" function="internal">
        <lane id=":1626961469_5_0" index="0" disallow="tram rail_urban rail rail_electric rail_fast ship" speed="3.65" length="4.67" shape="2917.47,1618.28 2918.84,1618.72 2919.45,1619.37 2919.29,1620.25 2918.36,1621.36"/>
    </edge>
    <edge id=":1626961469_6" function="internal">
        <lane id=":1626961469_6_0" index="0" disallow="tram rail_urban rail rail_electric rail_fast ship" speed="5.74" length="9.18" shape="2923.53,1626.00 2923.63,1623.28 2922.81,1621.60 2921.05,1620.96 2918.36,1621.36"/>
    </edge>
    <edge id=":1626961469_7" function="internal">
        <lane id=":1626961469_7_0" index="0" disallow="tram rail_urban rail rail_electric rail_fast ship" speed="22.22" length="15.15" shape="2923.53,1626.00 2925.98,1611.04"/>
    </edge>
    <edge id=":1626961469_8" function="internal">
        <lane id=":1626961469_8_0" index="0" disallow="tram rail_urban rail rail_electric rail_fast ship" speed="3.65" length="1.44" shape="2923.53,1626.00 2924.52,1624.95"/>
    </edge>
    <edge id=":1626961469_11" function="internal">
        <lane id=":1626961469_11_0" index="0" disallow="tram rail_urban rail rail_electric rail_fast ship" speed="3.65" length="3.23" shape="2924.52,1624.95 2925.38,1624.70 2926.10,1625.23 2926.68,1626.55"/>
    </edge>
    <edge id=":1626961495_0" function="internal">
        <lane id=":1626961495_0_0" index="0" disallow="tram rail_urban rail rail_electric rail_fast ship" speed="6.54" length="9.48" shape="2833.39,1659.99 2831.56,1657.96 2829.60,1657.02 2827.53,1657.14 2825.34,1658.34"/>
    </edge>
    <edge id=":1626961495_1" function="internal">
        <lane id=":1626961495_1_0" index="0" disallow="tram rail_urban rail rail_electric rail_fast ship" speed="22.22" length="15.04" shape="2833.39,1659.99 2824.50,1647.86"/>
    </edge>
    <edge id=":1626961495_2" function="internal">
        <lane id=":1626961495_2_0" index="0" disallow="tram rail_urban rail rail_electric rail_fast ship" speed="7.69" length="4.10" shape="2833.39,1659.99 2831.56,1656.32"/>
    </edge>
    <edge id=":1626961495_3" function="internal">
        <lane id=":1626961495_3_0" index="0" disallow="tram rail_urban rail rail_electric rail_fast ship" speed="3.65" length="1.44" shape="2833.39,1659.99 2833.37,1658.55"/>
    </edge>
    <edge id=":1626961495_16" function="internal">
        <lane id=":1626961495_16_0" index="0" disallow="tram rail_urban rail rail_electric rail_fast ship" speed="7.69" length="10.92" shape="2831.56,1656.32 2831.49,1656.20 2831.43,1652.93 2833.21,1650.19 2836.82,1647.97"/>
    </edge>
    <edge id=":1626961495_17" function="internal">
        <lane id=":1626961495_17_0" index="0" disallow="tram rail_urban rail rail_electric rail_fast ship" speed="3.65" length="3.23" shape="2833.37,1658.55 2833.79,1657.76 2834.68,1657.63 2836.02,1658.16"/>
    </edge>
    <edge id=":1626961495_4" function="internal">
        <lane id=":1626961495_4_0" index="0" disallow="tram rail_urban rail rail_electric rail_fast ship" speed="6.12" length="9.06" shape="2838.09,1650.91 2835.91,1652.25 2834.84,1653.90 2834.88,1655.87 2836.02,1658.16"/>
    </edge>
    <edge id=":1626961495_5" function="internal">
        <lane id=":1626961495_5_0" index="0" disallow="tram rail_urban rail rail_electric rail_fast ship" speed="13.89" length="14.80" shape="2838.09,1650.91 2834.72,1652.48 2831.48,1654.22 2828.35,1656.17 2825.34,1658.34"/>
    </edge>
    <edge id=":1626961495_6" function="internal">
        <lane id=":1626961495_6_0" index="0" disallow="tram rail_urban rail rail_electric rail_fast ship" speed="9.13" length="15.14" shape="2838.09,1650.91 2834.09,1652.08 2830.49,1651.96 2827.29,1650.56 2824.50,1647.86"/>
    </edge>
    <edge id=":1626961495_7" function="internal">
        <lane id=":1626961495_7_0" index="0" disallow="tram rail_urban rail rail_electric rail_fast ship" speed="3.65" length="4.67" shape="2838.09,1650.91 2836.67,1650.65 2835.99,1650.07 2836.04,1649.18 2836.82,1647.97"/>
    </edge>
    <edge id=":1626961495_8" function="internal">
        <lane id=":1626961495_8_0" index="0" disallow="tram rail_urban rail rail_electric rail_fast ship" speed="7.82" length="10.89" shape="2827.02,1645.90 2829.01,1647.80 2831.31,1648.78 2833.91,1648.83 2836.82,1647.97"/>
    </edge>
    <edge id=":1626961495_9" function="internal">
        <lane id=":1626961495_9_0" index="0" disallow="tram rail_urban rail rail_electric rail_fast ship" speed="22.22" length="15.21" shape="2827.02,1645.90 2836.02,1658.16"/>
    </edge>
    <edge id=":1626961495_10" function="internal">
        <lane id=":1626961495_10_0" index="0" disallow="tram rail_urban rail rail_electric rail_fast ship" speed="8.03" length="4.26" shape="2827.02,1645.90 2828.95,1649.29 2828.99,1649.65"/>
    </edge>
    <edge id=":1626961495_11" function="internal">
        <lane id=":1626961495_11_0" index="0" disallow="tram rail_urban rail rail_electric rail_fast ship" speed="3.65" length="1.44" shape="2827.02,1645.90 2827.13,1647.34"/>
    </edge>
    <edge id=":1626961495_18" function="internal">
        <lane id=":1626961495_18_0" index="0" disallow="tram rail_urban rail rail_electric rail_fast ship" speed="8.03" length="10.07" shape="2828.99,1649.65 2829.31,1652.49 2828.10,1655.51 2825.34,1658.34"/>
    </edge>
    <edge id=":1626961495_19" function="internal">
        <lane id=":1626961495_19_0" index="0" disallow="tram rail_urban rail rail_electric rail_fast ship" speed="3.65" length="3.23" shape="2827.13,1647.34 2826.74,1648.14 2825.87,1648.32 2824.50,1647.86"/>
    </edge>
    <edge id=":1626961495_12" function="internal">
        <lane id=":1626961495_12_0" index="0" disallow="tram rail_urban rail rail_electric rail_fast ship" speed="6.54" length="9.15" shape="2823.38,1655.80 2825.16,1653.99 2825.94,1652.06 2825.72,1650.02 2824.50,1647.86"/>
    </edge>
    <edge id=":1626961495_13" function="internal">
        <lane id=":1626961495_13_0" index="0" disallow="tram rail_urban rail rail_electric rail_fast ship" speed="13.89" length="15.59" shape="2823.38,1655.80 2826.51,1653.57 2829.87,1651.49 2833.34,1649.60 2836.82,1647.97"/>
    </edge>
    <edge id=":1626961495_14" function="internal">
        <lane id=":1626961495_14_0" index="0" disallow="tram rail_urban rail rail_electric rail_fast ship" speed="8.03" length="14.83" shape="2823.38,1655.80 2826.86,1653.88 2830.12,1653.63 2833.18,1655.06 2836.02,1658.16"/>
    </edge>
    <edge id=":1626961495_15" function="internal">
        <lane id=":1626961495_15_0" index="0" disallow="tram rail_urban rail rail_electric rail_fast ship" speed="3.65" length="4.67" shape="2823.38,1655.80 2824.82,1655.70 2825.63,1656.09 2825.80,1656.97 2825.34,1658.34"/>
    </edge>
    <edge id=":1626961513_0" function="internal">
        <lane id=":1626961513_0_0" index="0" disallow="tram rail_urban rail rail_electric rail_fast ship" speed="10.28" length="4.73" shape="2914.30,1696.49 2914.12,1697.87 2914.17,1698.83 2914.44,1699.77 2914.93,1701.08"/>
    </edge>
    <edge id=":1626961513_1" function="internal">
        <lane id=":1626961513_1_0" index="0" disallow="tram rail_urban rail rail_electric rail_fast ship" speed="3.65" length="1.44" shape="2914.30,1696.49 2913.30,1697.53"/>
    </edge>
    <edge id=":1626961513_4" function="internal">
        <lane id=":1626961513_4_0" index="0" disallow="tram rail_urban rail rail_electric rail_fast ship" speed="3.65" length="3.23" shape="2913.30,1697.53 2912.44,1697.79 2911.72,1697.26 2911.15,1695.93"/>
    </edge>
    <edge id=":1626961513_2" function="internal">
        <lane id=":1626961513_2_0" index="0" disallow="tram rail_urban rail rail_electric rail_fast ship" speed="22.22" length="10.04" shape="2909.33,1705.78 2910.17,1702.94 2910.51,1700.93 2910.72,1698.88 2911.15,1695.93"/>
    </edge>
    <edge id=":1626961513_3" function="internal">
        <lane id=":1626961513_3_0" index="0" disallow="tram rail_urban rail rail_electric rail_fast ship" speed="5.56" length="6.45" shape="2909.33,1705.78 2911.01,1701.58 2912.09,1699.99"/>
    </edge>
    <edge id=":1626961513_5" function="internal">
        <lane id=":1626961513_5_0" index="0" disallow="tram rail_urban rail rail_electric rail_fast ship" speed="5.56" length="4.21" shape="2912.09,1699.99 2912.50,1699.39 2913.81,1699.23 2914.93,1701.08"/>
    </edge>
    <edge id=":1626961518_0" function="internal">
        <lane id=":1626961518_0_0" index="0" disallow="tram rail_urban rail rail_electric rail_fast ship" speed="22.22" length="9.78" shape="2905.32,1714.92 2906.56,1712.29 2907.46,1710.51 2908.27,1708.69 2909.27,1705.97"/>
    </edge>
    <edge id=":1626961518_1" function="internal">
        <lane id=":1626961518_1_0" index="0" disallow="tram rail_urban rail rail_electric rail_fast ship" speed="22.22" length="9.85" shape="2908.98,1715.72 2908.83,1712.79 2908.56,1710.75 2908.57,1708.76 2909.27,1705.97"/>
    </edge>