<?xml version="1.0" encoding="UTF-8"?>

<!-- generated on 2024-10-20 15:31:52 by Eclipse SUMO duarouter Version 1.19.0
<configuration xmlns:xsi="http://www.w3.org/2001/XMLSchema-instance" xsi:noNamespaceSchemaLocation="http://sumo.dlr.de/xsd/duarouterConfiguration.xsd">

    <input>
        <net-file value="C:\Users\MONSTER\Documents\GitHub\SUMOScripts\SUMO-1\my_data2\osm\Gemlik.net.xml"/>
        <route-files value="C:\Users\MONSTER\Documents\GitHub\SUMOScripts\SUMO-1\my_data2\osm\Gemlik_trips.xml"/>
    </input>

    <output>
        <output-file value="C:\Users\MONSTER\Documents\GitHub\SUMOScripts\SUMO-1\my_data2\osm\Gemlik_routes.xml"/>
    </output>

</configuration>
-->

<routes xmlns:xsi="http://www.w3.org/2001/XMLSchema-instance" xsi:noNamespaceSchemaLocation="http://sumo.dlr.de/xsd/routes_file.xsd">
    <vType id="passenger" vClass="passenger"/>
    <vehicle id="0" type="passenger" depart="45.00">
        <route edges="-458028957#2 -458028957#1 -458028957#0 -457878000#7 -457878000#6 -457878000#5 457878000#5"/>
    </vehicle>
    <vehicle id="1" type="passenger" depart="162.00">
        <route edges="458026842 -458026842 -457875354#1 -457875354#0 -458285450#2 -458285450#1 -458285450#0 -23034744#15 -23034744#14 -23034744#13 -23034744#12 -23034744#11 50447292#0 50447292#1 50447292#2 50447292#3 50447292#4 50447292#5 50447292#6 -50447437#10 -50447437#9 -457878021#1 -457878021#0 457878013#2"/>
    </vehicle>
    <vehicle id="2" type="passenger" depart="193.00">
        <route edges="700326823#0 -700326823#0 -700326610#0 -260913520#4 -700317615#8 -700317615#7 -700317615#6 -700317615#5 -700317615#4 -700317615#3 -700317615#2 -700317615#1 -700317615#0 -700317613 700317612#0 700317612#1 -457873262#7 -457873262#6 -457873262#5 -457873262#4 -457873262#3 -457873262#2 -457873262#1 -457873262#0 458058254#1 -457873260#4 458047059"/>
    </vehicle>
    <vehicle id="3" type="passenger" depart="223.00">
        <route edges="-700326269#2 700326270 -458040737#1 -458040737#0 458035738#0 458035738#1 458035738#2 -458037827 -458040735 -700327557#4 35781598#6 35781598#7 35781598#8 35781598#9 -1055308977 -700326611#2 -700326611#1 700326613#0 -700326613#0"/>
    </vehicle>
    <vehicle id="4" type="passenger" depart="305.00">
        <route edges="-458053374#0 458032163#3 458032163#4 458032163#5 458032163#6 458032163#7 458032163#8 458032163#9 700317028#8 700317028#9 700317028#10 700317028#11 700317028#12 700317613 700317614#0 700317614#1 700317614#2 700317614#3 700320517"/>
    </vehicle>
    <vehicle id="5" type="passenger" depart="324.00">
        <route edges="357821181#2 357821181#3 50447244#0 458059914#0 458059914#1 458059914#2 261068268#0 261068268#1 261068268#2 261068268#3 261068268#4 261068268#5 261068268#6 50447453#3 50447453#4 50447453#5 50447453#6 50447453#7 261068269#0 -458460659"/>
    </vehicle>
    <vehicle id="6" type="passenger" depart="345.00">
        <route edges="458035738#4 458037373 600350993#1 600350993#2 458035737#0 458035737#1 458035737#2 458040737#0 458040737#1 458040737#2 458040737#3 458040737#4 458040737#5 458040737#6 458040737#7 458041450#3 458041450#4 458041450#5 458041450#6 458041450#7 458041450#8 458041450#9 458041450#10 458041450#11 458041450#12 458041450#13 458041450#14 458041450#15 458041450#16 458041450#17 458041450#18 50447260 50447256#1 50447276 50447244#0 458059914#0 458059914#1 458059914#2 261068268#0 261068268#1 261068268#2 261068268#3 261068268#4 261068268#5 261068268#6 -458286213#3 -458286213#2 -458286213#1 -458286213#0 -261068270#2 1055383634#4 458460650#0 -458460650#0"/>
    </vehicle>
    <vehicle id="7" type="passenger" depart="352.00">
        <route edges="-458042916 458042914#1 260913518#7 260913518#8 260913518#9 -458042923#0 260913520#1 260913520#2 260913520#3 260913520#4 260913520#5 260913520#6 260913520#7 260913520#8 260913520#9 260913521#0 -260913521#0"/>
    </vehicle>
    <vehicle id="8" type="passenger" depart="409.00">
        <route edges="-1055323844#3 -261068288#0 -458041450#6 -458041450#5 -458041450#4 35781598#0 35781598#1 35781598#2 35781598#3 35781598#4 35781598#5 35781598#6 35781598#7 35781598#8 35781598#9 35781598#10 -458040743 -458040738 458040739"/>
    </vehicle>
    <vehicle id="9" type="passenger" depart="410.00">
        <route edges="-681343941#1 -681343941#0 457878000#3 457878000#4 457878000#5 457878000#6 457878000#7 457878000#8 457878000#9 -457875356#6 -457875356#5 -457875356#4 -457875356#3 -457875356#2 -457875356#1 -457875356#0 458285450#6 458285450#7 458285450#8 458285450#9 458285450#10 458285450#11 458285450#12 458285450#13 458285450#14 458285450#15 458285450#16 700317613 700317615#0 700317615#1 700317615#2 700317615#3 700317615#4 -458042930#3 -260913524#2 -260913524#1"/>
    </vehicle>
    <vehicle id="10" type="passenger" depart="443.00">
        <route edges="-50447433#0 50447447#1 50447447#2 50447447#3 50447447#4 50447447#5 50447447#6 50447447#7 50447453#0 50447453#1 50447453#2 -458286213#3 -458286213#2 -458286213#1 -458286213#0 -261068270#2 -261068270#1 -261068270#0 -50451221#0 50447437#0 -458287593#1 -458287593#0 458287591#1"/>
    </vehicle>
    <vehicle id="11" type="passenger" depart="448.00">
        <route edges="260913522#3 -260913522#3 -260920436#2 -260920436#1 -260920436#0 -458032454#16 -458032454#15 -458032454#14 -50454000#2 -50454000#1 -50454000#0 261068295#0 261068295#1 261068295#2 261068295#3 -700321088 700317028#6 700317028#7 -458032163#9 -458032163#8 -458032163#7 -458032163#6 -458032163#5 -458032163#4 -458032163#3 -458032163#2 458057658 458057657#1 458057657#2"/>
    </vehicle>
    <vehicle id="12" type="passenger" depart="472.00">
        <route edges="261068271 458286213#0 458286213#1 458286213#2 458286213#3 -261068268#6 -261068268#5 -261068268#4 -261068268#3 -261068268#2 -261068268#1 -261068268#0 -458059914#2 -458084784#4 -458084784#3 -458084784#2 357826379#8 357826379#9 357826379#10 50447256#3 50447256#4 50447261 -458041450#18 -458041450#17 -458041450#16 -458041450#15 -458041450#14 -458041450#13 -458041450#12 -458041450#11 -458041450#10 -458041450#9 -458041450#8 -458041450#7 -458041450#6 -458041450#5 -458041450#4 -458041450#3 -458041450#2 458041450#2"/>
    </vehicle>
    <vehicle id="13" type="passenger" depart="539.00">
        <route edges="-260920426 260920425#2 -23034725#12 -23034725#11 -23034725#10 -23034725#9 260913520#0 260913520#1 260913520#2 260913520#3 260913520#4 260913520#5 -700327558#1 -700327558#0 -458042932#3 458042937 -260920434#1 -260920434#0 260920433#3"/>
    </vehicle>
    <vehicle id="14" type="passenger" depart="584.00">
        <route edges="458042898 23034725#2 23034725#3 23034725#4 23034725#5 23034725#6 23034725#7 23034725#8 260913520#0 260913520#1 260913520#2 260913520#3 -700317615#8 -700317615#7 -700317615#6 -700317615#5 -700317615#4 -700317615#3 -700317615#2 -700317615#1 -700317615#0 -700317613 700317612#0 700317612#1 -457873262#7 -457873262#6 -457873262#5 -457873262#4 -457873262#3 -457873262#2 -457873262#1 -457873262#0 458058254#1 -457873260#4 -457873260#3 -457873260#2 -457873260#1 458047060#0 458047060#1"/>
    </vehicle>
    <vehicle id="15" type="passenger" depart="599.00">
        <route edges="-1055307679#0 700326269#4 700326269#5 700326269#6 700326269#7 -1055308065"/>
    </vehicle>
    <vehicle id="16" type="passenger" depart="623.00">
        <route edges="-458042923#1 260913518#10 260913518#11 260913518#12 -700317615#7 -700317615#6 -700317615#5 -700317615#4 -700317615#3 -700317615#2 -700317615#1 -700317615#0 700317614#0 700317614#1 700317614#2 700317614#3 700317614#4 700317614#5 -700321088 700317028#6 700317028#7 -458032163#9 -458032163#8 -458032163#7 -458032163#6 -458053376"/>
    </vehicle>
    <vehicle id="17" type="passenger" depart="661.00">
        <route edges="261068272#1 -50447447#9 -50447447#8 -50447447#7 -50447447#6 -50447447#5 -50447447#4 -50447447#3 -50447447#2 -50447447#1 -50447447#0 458084784#0 458084784#1 357826379#8 357826379#9 357826379#10 50447256#3 50447256#4 50447261 -458041450#18 -458041450#17 23034760 700311542#0 700311542#1 700311542#2 700311542#3 700311542#4 700311542#5 700311542#6 -700317613 -458285450#16 -458285450#15 -458285450#14 458059687#0 458059687#1 -458059687#1"/>
    </vehicle>
    <vehicle id="18" type="passenger" depart="663.00">
        <route edges="-260913519#1 -23034725#11 -23034725#10 -23034725#9 260913520#0 260913520#1 260913520#2 260913520#3 260913520#4 260913520#5"/>
    </vehicle>
    <vehicle id="19" type="passenger" depart="689.00">
        <route edges="357822017 844212077#1 -261068296#1 -261068296#0 261068295#3 -700321088 700317028#6 700317028#7 700317028#8 700317028#9 700317028#10 700317028#11 700317028#12 700317612#0 700317612#1 -457873262#7 -457873262#6 -457873262#5 -457873262#4 -457873262#3 -457873262#2 -457873262#1 -457873262#0 458058254#1 -457873260#4 -457873260#3 -457873260#2 -457873260#1 -457873260#0 23034744#12 23034744#13 23034744#14"/>
    </vehicle>
    <vehicle id="20" type="passenger" depart="786.00">
        <route edges="458042908#0 458042908#1 -35781598#1 -35781598#0 -203285745#13 -203285745#12 -203285745#11 -203285745#10 -203285745#9 -203285745#8 -203285745#7 -203285745#6 -203285745#5 -203285745#4 -203285745#3 -203285745#2 -203285745#1 -203285745#0 -260920447#6 -260920447#5 -260920447#4 -260920447#3 -260920447#2 -260920447#1 -260920447#0 1055383634#0 1055383634#1 1055383634#2 357824829#0 357824829#1 50451221#3"/>
    </vehicle>
    <vehicle id="21" type="passenger" depart="812.00">
        <route edges="261068277#2 261068277#3 261068277#4 457873264#4 457873264#5 457873264#6 -357821181#0 700319519 700311542#2 700311542#3 700311542#4 700311542#5 700311542#6 700317615#0 700317615#1 700317615#2 700317615#3 -458032454#7"/>
    </vehicle>
    <vehicle id="22" type="passenger" depart="907.00">
        <route edges="-261068280#0 261068280#0 261068280#1 458041450#12 458041450#13 458041450#14 458041450#15 458041450#16 23034760 700311542#0 700311542#1 700311542#2 700311542#3 700311542#4 700311542#5 700311542#6 -700317613 -458285450#16 -458285450#15 -458285450#14 -458285450#13 -458285450#12 -458285450#11 -458285450#10 457875345#0 458059689"/>
    </vehicle>
    <vehicle id="23" type="passenger" depart="944.00">
        <route edges="260913520#11 -260913520#11 -260913520#10 260913521#0 260913521#1 260913521#2 260913521#3 260913521#4 260913521#5 260913521#6 458032454#13 -50454000#2 -50454000#1 -50454000#0 261068295#0 261068295#1 261068295#2 261068295#3 -700321088 700317028#6 700317028#7 -458032163#9 -458032163#8 -458032163#7 -458032163#6 -458032163#5 -458032163#4 -458032163#3 -458032163#2 -458032163#1 -458032163#0 -681343940#2 -681343940#1 -681343940#0 -681343941#1 -681343941#0"/>
    </vehicle>
    <vehicle id="24" type="passenger" depart="979.00">
        <route edges="844212076#1 1266225380#0 -50447453#20 1266225379#1 23034644#1 23034644#2 203285746#0 203285746#1 50447437#10 -50447437#10"/>
    </vehicle>
    <vehicle id="25" type="passenger" depart="1005.00">
        <route edges="357824827#2 357824827#3 357826379#3 357826379#4 357826379#5 357826379#6 357826379#7 357826379#8 357826379#9 357826379#10 50447256#3 50447256#4 50447261 -458041450#18 -458041450#17 23034760 700311542#0 700311542#1 700311542#2 700311542#3 700311542#4 700311542#5 700311542#6 700317614#0 700317614#1 700317614#2 700317614#3 700317614#4 700317614#5 -261068295#3 -261068295#2 -261068295#1 -261068295#0 50454000#0 261068291#0 261068292#0 -261068292#0"/>
    </vehicle>
    <vehicle id="26" type="passenger" depart="1019.00">
        <route edges="261068301#1 261068301#2 -260913518#0 458032454#5 458032454#6 458032454#7 458032454#8 458032454#9 458032454#10 458032454#11 -50453944#1 50453944#1"/>
    </vehicle>
    <vehicle id="27" type="passenger" depart="1044.00">
        <route edges="1055733642#2 1055733642#3 1055733642#4 -35781711#2 -35781711#1 -35781711#0 -35781539#1 -35781539#0 458035740#0 458035740#1 458035739#0 458035739#1 600350994 600350993#0 600350993#1 600350993#2 458035737#0 -458040735 -700327557#4 -700327557#3 -700327557#2 -700327557#1 -700327557#0 -700317615#8 -700317615#7 -700317615#6 -700317615#5 -700317615#4 -700317615#3 -700317615#2 -700317615#1 -700317615#0 -700317613 700317612#0 700317612#1 -457873262#7 -457873262#6 -457873262#5 -457873262#4 -457873262#3 -457873262#2 -457873262#1 -458047057 -457872228#5 -457872228#4"/>
    </vehicle>
    <vehicle id="28" type="passenger" depart="1079.00">
        <route edges="458285450#3 -458285450#3 -458285450#2 -458285450#1 -458285450#0 -23034744#15 -23034744#14 -23034744#13 -23034744#12 -23034744#11 50447292#0"/>
    </vehicle>
    <vehicle id="29" type="passenger" depart="1128.00">
        <route edges="457873262#6 -457873262#6 -457873262#5 457875338#0 457875338#1 458285450#16 700317613 700317615#0 700317615#1 700317615#2 700317615#3 700317615#4 700317615#5 700317615#6 700317615#7 700317615#8 260913520#4 700326610#0 700326823#0 700326823#1 700326817#2 -700326611#1 -700326611#0"/>
    </vehicle>
    <vehicle id="30" type="passenger" depart="1146.00">
        <route edges="1055738016#1 1055738016#2 -1055303872#3 -1055303872#2 -1055303872#1 -1055303872#0 -600350999#2 -600350999#1 -600350999#0 723354766 600350998#5 600350998#6 600350998#0 600350998#1 723354765 458041450#0 458041450#1 458041450#2 458041450#3 458041450#4 458041450#5 458041450#6 458041450#7 458041450#8 458041450#9 458041450#10 458041450#11 458041450#12 458041450#13 458041450#14 458041450#15 458041450#16 23034760 700311542#0 700311542#1 700311542#2 700311542#3 700311542#4 700311542#5 700311542#6 700317614#0 700317614#1 700317614#2 700317614#3 700317614#4 700317614#5 700317614#6 700317614#7 844212080 700317028#1 700317028#2 700317028#3 700317028#4 -458053367#1 -458053367#0 458053368#1 458053368#2 458053368#3 458053368#4 -458053368#4"/>
    </vehicle>
    <vehicle id="31" type="passenger" depart="1298.00">
        <route edges="700317614#1 700317614#2 -700320518 700320518"/>
    </vehicle>
    <vehicle id="32" type="passenger" depart="1300.00">
        <route edges="-261068286#0 458041450#5 458041450#6 458041450#7 458041450#8 458041450#9 458041450#10 458041450#11 458041450#12 458041450#13 458041450#14 458041450#15 458041450#16 458041450#17 458041450#18 50447260 50447256#1 50447276 50447244#0 458059914#0 458059914#1 458059914#2 261068268#0 261068268#1 261068268#2 261068268#3 261068268#4 261068268#5 261068268#6 50447453#3 50447453#4 50447453#5 50447453#6 50447453#7 50447453#8 50447453#9 50447453#10 -261068275#1"/>
    </vehicle>
    <vehicle id="33" type="passenger" depart="1301.00">
        <route edges="458084784#1 357826379#8 357826379#9 357826379#10 50447256#3 50447256#4 50447261 -458041450#18 -458041450#17 -458041450#16 -458041450#15 -458041450#14 -458041450#13 -458041450#12 -458041450#11 -458041450#10 -458041450#9 -261068282#1 -261068282#0 261068282#0"/>
    </vehicle>
    <vehicle id="34" type="passenger" depart="1378.00">
        <route edges="260913522#3 -260913522#3 -260920436#2 -260920436#1 -260920436#0 -458032454#16 -458032454#15 -458032454#14 -458032454#13 -458032454#12 -458032454#11 -458032454#10 -458032454#9 -458032454#8 -458032454#7 -458044669#2 -458044669#1 -458044669#0 50453461#1 50453461#2"/>
    </vehicle>
    <vehicle id="35" type="passenger" depart="1416.00">
        <route edges="-458042934#2 -458042932#0 458042930#2 458042930#3 -700317615#4 -458032454#7 -458032454#6 -458032454#5 -458032454#4 -458032454#3 -458032454#2 -458032454#1 -458032454#0 -23034593#1 -23034593#0 -203285745#4 -203285745#3 -203285745#2 -203285745#1 -203285745#0 -357821183#3 -357821183#2 -357821183#1"/>
    </vehicle>
    <vehicle id="36" type="passenger" depart="1418.00">
        <route edges="-457875348 457873259#4 -458047059 -457873260#3 -457873260#2 -457873260#1 -457873260#0 -23034744#11 50447292#0 50447292#1 50447292#2 50447292#3 50447292#4 50447292#5 50447292#6 -50447437#10 -50447437#9 -457878021#1 -457878021#0 457878021#0"/>
    </vehicle>
    <vehicle id="37" type="passenger" depart="1465.00">
        <route edges="-261068295#1 -261068295#0 50454000#0 50454000#1 50454000#2 -458032454#13 -260913521#6 -260913521#5 -260913521#4 -260913521#3 -260913521#2 -260913521#1 -260913521#0 260913520#10 260913520#11 260913520#12 260913520#13 260913520#14 -458040743 -458040738 458040739 458037372 458035738#5 600350995 600350996#0 600350996#1"/>
    </vehicle>
    <vehicle id="38" type="passenger" depart="1518.00">
        <route edges="-458285450#7 458285450#7 458285450#8 458285450#9 458285450#10 458285450#11 458285450#12 458285450#13 458285450#14 458285450#15 458285450#16 700317613 700317615#0 700317615#1 700317615#2 700317615#3 458032454#8 458032454#9 458032454#10 260920433#0 458042930#0"/>
    </vehicle>
    <vehicle id="39" type="passenger" depart="1551.00">
        <route edges="50447437#5 50447437#6 50447437#7 50447437#8 50447437#9 -50447433#7 -50447433#6 -50447433#5"/>
    </vehicle>
    <vehicle id="40" type="passenger" depart="1564.00">
        <route edges="-261068272#2 -50447447#9 -50447447#8 -50447447#7 -50447447#6 -50447447#5 -50447447#4 -50447447#3 -50447447#2 -50447447#1 -50447447#0 458084784#0 458084784#1 357826379#8 357826379#9 357826379#10 50447256#3 50447256#4 50447261 -458041450#18 -458041450#17 23034760 700311542#0 700311542#1 700311542#2 700311542#3 700311542#4 700311542#5 700311542#6 700317614#0 700319522#0 -700319522#0"/>
    </vehicle>
    <vehicle id="41" type="passenger" depart="1579.00">
        <route edges="458084785#1 -458084786#2 -458084786#1 357826379#6 357826379#7 357826379#8 357826379#9 357826379#10 50447256#3 50447256#4 50447261 -458041450#18 -458041450#17 23034760 700311542#0 700311542#1 700311542#2 700311542#3 700311542#4 700311542#5 700311542#6 -700317613 -458285450#16 -458285450#15 -458285450#14 -458285450#13 -458285450#12"/>
    </vehicle>
    <vehicle id="42" type="passenger" depart="1646.00">
        <route edges="-458460655#1 458460655#1 -50447453#12 -50447453#11 -50447453#10 50447437#4 50447437#5 50447437#6 50447437#7 50447437#8 50447437#9 50447437#10 457878009#0 457878009#1 457878009#2 457878009#3 -457877997#3 -457877997#2 -457877997#1 -457877997#0 457875356#6 -458032158#1 -458032158#0 458058254#10 458032163#0 458032163#1 458032163#2"/>
    </vehicle>
    <vehicle id="43" type="passenger" depart="1696.00">
        <route edges="-458059697 -458059695#0 -458047056#3 -458047056#2 -458047056#1 -458047056#0 700317612#5 700317612#6 700317612#7 700311540 -458041450#18 -458041450#17 -458041450#16 -458041450#15 -458041450#14 -458041450#13 458032454#0 458032454#1 458032454#2 458032454#3 458032454#4 458032454#5 458032454#6 458032454#7 458032454#8 458032454#9 458032454#10 458032454#11 458032454#12 -260913521#6 -260913521#5 -260913521#4 -260913521#3 -260913521#2 -260913521#1 260913522#0 260913522#1"/>
    </vehicle>
    <vehicle id="44" type="passenger" depart="1704.00">
        <route edges="458035737#1 458040736#0 458035738#1 458035738#2 -458037827 -458040735 -700327557#4 -700327557#3 -700327557#2 -700327557#1 -700327557#0 -700317615#8 -700317615#7 -700317615#6 -700317615#5 -700317615#4 -700317615#3 -700317615#2 -700317615#1 -700317615#0 -700317613 -458285450#16 -458285450#15 -458285450#14 -458285450#13 -458285450#12 -458285450#11 -458285450#10 -458285450#9 -458285450#8 458058254#4 458058254#5 -458058254#5"/>
    </vehicle>
    <vehicle id="45" type="passenger" depart="1718.00">
        <route edges="-458059693 457873266#4 700317612#3 700317612#4 700317612#5 700317612#6 700317612#7 700311540 50447260 50447256#1 50447256#2 -357826379#10 -357826379#9 -357826379#8 -357826379#7 50447433#1"/>
    </vehicle>
    <vehicle id="46" type="passenger" depart="1720.00">
        <route edges="-458032161#3 458032161#3 700317028#9 700317028#10 700317028#11 700317028#12 700317613 700317615#0 700317615#1 700317615#2 700317615#3 700317615#4 700317615#5 700317615#6 458042919#0 458042919#1 -458042919#1"/>
    </vehicle>
    <vehicle id="47" type="passenger" depart="1725.00">
        <route edges="50447354#0 50447354#1 23034744#7 23034744#8 23034744#9 23034744#10 23034744#11 23034744#12 23034744#13 23034744#14 23034744#15 458285450#0 458285450#1 458285450#2 458285450#3"/>
    </vehicle>
    <vehicle id="48" type="passenger" depart="1734.00">
        <route edges="-458032454#13 -458032454#12 -458032454#11 -458032454#10 -458032454#9 -458032454#8 -458032454#7 -458032454#6 -458042923#5 -458042923#4 -458042923#3 -458042923#2 -458042923#1 -260913518#9 -260913518#8 -260913518#7"/>
    </vehicle>
    <vehicle id="49" type="passenger" depart="1754.00">
        <route edges="458027179#3 23034644#5 23034644#6 23034644#7 -458058254#16 -458058254#15 -458058254#14 -458058254#13 -458058254#12 -458058254#11 -458058254#10 -458058254#9 -458058254#8 -458058254#7 -458058254#6 -458058254#5 -458058254#4 -458058254#3 -458058254#2 -457873260#4 457873260#4"/>
    </vehicle>
    <vehicle id="50" type="passenger" depart="1872.00">
        <route edges="458047056#4 457872228#4 457872228#5 458047057 457873262#1 457873262#2"/>
    </vehicle>
    <vehicle id="51" type="passenger" depart="1888.00">
        <route edges="-50453461#4 -458047054#2 -458047054#1 -458047054#0 700311542#5 700311542#6 -700317613 700317612#0 700317612#1 -457873262#7 -457873262#6 -457873262#5 -457873262#4 -457873262#3 -457873262#2 -457873262#1 -457873262#0 -458058254#0"/>
    </vehicle>
    <vehicle id="52" type="passenger" depart="1907.00">
        <route edges="458285453#0 458285453#1 -458285451#2 -458285451#1 -458285451#0 -261068268#4 -261068268#3 -261068268#2 -261068268#1 -261068268#0 -458059914#2 -458084784#4 -458084784#3 -458084784#2 357826379#8 357826379#9 357826379#10 50447256#3 50447256#4 50447261 -458041450#18 -458041450#17 -458041450#16 -458041450#15 -458041450#14 -458041450#13 -458041450#12 -458041450#11 -458041450#10 -458041450#9 -458041450#8 -458041450#7 -458041450#6 -458041450#5 -458041450#4 -458041450#3 -458041450#2 -700326269#8 -700326269#7 -700326269#6 -700326269#5 -700326269#4 1055307679#0 1055307679#1 1055307679#2 35781805#6"/>
    </vehicle>
    <vehicle id="53" type="passenger" depart="1911.00">
        <route edges="-458084788#3 -458084788#2 -458084788#1 357826379#5 357826379#6 357826379#7 357826379#8 357826379#9 357826379#10 50447256#3 50447256#4 50447261 -458041450#18 -458041450#17 -458041450#16 -458041450#15 -458041450#14 -458041450#13 -458041450#12 -458041450#11 -458041450#10 -458041450#9 -458041450#8 -458041450#7 -458041450#6 -458041450#5 -458042903#2 -458042903#1 -458042903#0 458042905#0 458042905#1 260913519#3"/>
    </vehicle>
    <vehicle id="54" type="passenger" depart="1933.00">
        <route edges="-458285450#3 458285450#3 458285450#4 458285450#5 458285450#6 458285450#7 458285450#8 458285450#9 458285450#10 458285450#11 458285450#12 458285450#13 458285450#14 458285450#15 458285450#16 700317613 700317615#0 700317615#1 700317615#2 700317615#3 700317615#4 700317615#5 700317615#6 700317615#7 700317615#8 260913520#4 700326610#0 700326823#0 700326823#1 -700326819#1"/>
    </vehicle>
    <vehicle id="55" type="passenger" depart="2014.00">
        <route edges="260920428 -35781598#0 458041450#4 458041450#5 458041450#6 458041450#7 458041450#8 458041450#9 458041450#10 458041450#11 458041450#12 458041450#13 458041450#14 458041450#15 458041450#16 23034760 700311542#0 700311542#1 -700319519 357821181#0 -457873264#6 -457873264#5 -457873264#4 -457873264#3 458047056#2 458047056#3 458047056#4"/>
    </vehicle>
    <vehicle id="56" type="passenger" depart="2048.00">
        <route edges="-458053368#0 458032163#7 458032163#8 458032163#9 700317028#8 700317028#9 700317028#10 700317028#11 700317028#12 700317612#0 700317612#1 700317612#2 700317612#3 700317612#4 700317612#5 700317612#6 357821181#0 357821181#1 357821181#2 357821181#3 50447244#0 458059914#0 458059914#1 458059914#2 261068268#0 261068268#1 261068268#2 261068268#3 261068268#4 261068268#5 261068268#6 -458286213#3 -458286213#2 -458286213#1 -458286213#0 -261068270#2 1055383634#4 458460650#0 458460650#1 458460650#2 -458460650#2"/>
    </vehicle>
    <vehicle id="57" type="passenger" depart="2256.00">
        <route edges="-1055738016#1 -1055738016#0 -1055738015#1 -1055738015#0 -1055303872#0 -600350999#2 -600350999#1 -600350999#0 723354766 600350998#5 600350998#6 600350998#0 600350998#1 723354765 458041450#0 458041450#1 458041450#2 458041450#3 458041450#4 458041450#5 458041450#6 458041450#7 458041450#8 458041450#9 458041450#10 458041450#11 458041450#12 458041450#13 458041450#14 458041450#15 458041450#16 458041450#17 458041450#18 50447260 50447256#1 50447276 50447244#0 -50447429#2 -50447429#1 50447350 -457878002#2 -457878002#1 -457878002#0 50447292#1 -457878004#3 -457878004#2 -457878004#1 -457878004#0"/>
    </vehicle>
    <vehicle id="58" type="passenger" depart="2268.00">
        <route edges="-458032454#12 -50453944#1 -50453944#0 50453562#2 50453562#3 700319521#0 700319521#1 -700320513#1 -700320513#0"/>
    </vehicle>
    <vehicle id="59" type="passenger" depart="2366.00">
        <route edges="457878016#1 50447437#7 50447437#8 50447437#9 50447437#10 -50447292#6 -50447244#3 -50447244#2 -50447244#1 -50447244#0 50447275 50447256#3 50447256#4 50447261 -458041450#18 -458041450#17 -458041450#16 -458041450#15 -458041450#14 -458041450#13 458032454#0 458032454#1 458032454#2 458032454#3 458032454#4 458032454#5 458032454#6 458032454#7 700317615#4"/>
    </vehicle>
    <vehicle id="60" type="passenger" depart="2375.00">
        <route edges="203285745#7 -203285745#7 -203285745#6 -203285745#5 -203285745#4 -50453461#9 -50453461#8"/>
    </vehicle>
    <vehicle id="61" type="passenger" depart="2408.00">
        <route edges="-50451221#4 -50451221#3 -357824829#1 -357824829#0 -1055383634#2 -1055383634#1 -1055383634#0 260920447#0 260920447#1 260920447#2 260920447#3 260920447#4 260920447#5 260920447#6 203285745#0 203285745#1 203285745#2 203285745#3 203285745#4 23034593#0 23034593#1 458032454#0 458032454#1 458032454#2 458032454#3 458032454#4 458032454#5 458032454#6 458032454#7 700317615#4 700317615#5 700317615#6 700317615#7 700317615#8 260913520#4 260913520#5 260913520#6 260920437#0 260920437#1"/>
    </vehicle>
    <vehicle id="62" type="passenger" depart="2413.00">
        <route edges="700317612#1 700317612#2 700317612#3 700317612#4 700317612#5 700317612#6 700319519 700311542#2 458044675#0 50453182#2"/>
    </vehicle>
    <vehicle id="63" type="passenger" depart="2462.00">
        <route edges="457878000#5 457878000#6 457878000#7 457878000#8 457878000#9 -457875356#6 457877997#0 457877997#1 457877997#2 457877997#3 -457878009#3 -457878009#2 -457878009#1 -457878009#0 -50447437#10 -50447437#9 -50447437#8 -50447437#7 -50447437#6 -50447437#5 -50447437#4 -50447453#9 -458286214#1 458285459#2"/>
    </vehicle>
    <vehicle id="64" type="passenger" depart="2560.00">
        <route edges="-23034725#17 1055323154#0 1055323154#1 -458041450#10 -458041450#9 -458041450#8 -458041450#7 -458041450#6 -458041450#5 -458041450#4 -458041450#3 -458040737#7 -458040737#6 -458040737#5 -458040737#4 -458040737#3 -458040737#2 -458040737#1 -458040737#0 458035738#0 458040736#1 -1055737997 1055737997"/>
    </vehicle>
    <vehicle id="65" type="passenger" depart="2578.00">
        <route edges="50453182#1 50453182#2 -1055325656 700311542#1 -700319519 357821181#0 357821181#1 357821181#2 23034744#0 23034744#1 23034744#2 23034744#3 23034744#4 23034744#5 23034744#6 23034744#7 23034744#8 23034744#9 23034744#10 23034744#11 23034744#12 23034744#13 23034744#14 23034744#15 458285450#0"/>
    </vehicle>
    <vehicle id="66" type="passenger" depart="2584.00">
        <route edges="700317615#4 -700317615#4 -700317615#3 -700317615#2 -700317615#1 -700317615#0 -700317613 -458285450#16 -458285450#15 457875341#0 458059683#0 458059684 -458059684"/>
    </vehicle>
    <vehicle id="67" type="passenger" depart="2613.00">
        <route edges="-261068280#1 261068280#1 458041450#12 458041450#13 458041450#14 458041450#15 458041450#16 23034760 700311542#0 700311542#1 700311542#2 700311542#3 700311542#4 700311542#5 700311542#6 -700317613 700317612#0 -457873259#10 457873259#10"/>
    </vehicle>
    <vehicle id="68" type="passenger" depart="2684.00">
        <route edges="458040901#4 458040901#5 458040901#6 -458040902 -260913522#4 -260913522#3 -260920436#2 -260920436#1 -260920436#0 -458032454#16 -458032454#15 -458032454#14 -50454000#2 -50454000#1 -50454000#0 261068295#0 261068295#1 261068295#2 261068295#3 700317614#6 700317614#7 700317614#8 700317031#3 700317031#0 844212076#0 683868478#1 -458027179#3 -458027179#2 -458027179#1 -458027179#0 -457878010#3 -457878010#2"/>
    </vehicle>
    <vehicle id="69" type="passenger" depart="2723.00">
        <route edges="700317612#6 700319519 700311542#2 700311542#3 700311542#4 700311542#5 700311542#6 700317614#0 700317614#1 700317614#2 700317614#3 700317614#4 700317614#5 700317614#6 700317614#7 700317614#8 844212077#0 844212077#1 844212077#2 844212077#3 -700314245 -261068299#0 -260920435#3 -260920435#2 -260920435#1"/>
    </vehicle>
    <vehicle id="70" type="passenger" depart="2791.00">
        <route edges="-458044675#1 -458044675#0 700311542#3 700311542#4 700311542#5 700311542#6 700317614#0 700317614#1 -700319524 700319523#1 700319521#5 50453562#6"/>
    </vehicle>
    <vehicle id="71" type="passenger" depart="2816.00">
        <route edges="261068277#5 -261068277#5 -261068277#4 -261068277#3 -261068277#2 -261068277#1 -261068277#0 -23034744#4 -23034744#3 50447429#0 50447429#1 50447429#2 458059914#0 458059914#1 458059914#2 261068268#0 261068268#1 261068268#2 261068268#3 261068268#4 261068268#5 261068268#6 50447453#3 50447453#4 50447453#5 50447453#6 50447453#7 50447453#8 50447453#9 50447453#10 50447453#11 -50447453#11"/>
    </vehicle>
    <vehicle id="72" type="passenger" depart="2848.00">