<?xml version="1.0" encoding="UTF-8"?>

<!-- generated on 2024-10-20 15:31:22 by Eclipse SUMO duarouter Version 1.19.0
<configuration xmlns:xsi="http://www.w3.org/2001/XMLSchema-instance" xsi:noNamespaceSchemaLocation="http://sumo.dlr.de/xsd/duarouterConfiguration.xsd">

    <input>
        <net-file value="C:\Users\MONSTER\Documents\GitHub\SUMOScripts\SUMO-1\my_data2\osm\Gursu.net.xml"/>
        <route-files value="C:\Users\MONSTER\Documents\GitHub\SUMOScripts\SUMO-1\my_data2\osm\Gursu_trips.xml"/>
    </input>

    <output>
        <output-file value="C:\Users\MONSTER\Documents\GitHub\SUMOScripts\SUMO-1\my_data2\osm\Gursu_routes.xml"/>
    </output>

</configuration>
-->

<routes xmlns:xsi="http://www.w3.org/2001/XMLSchema-instance" xsi:noNamespaceSchemaLocation="http://sumo.dlr.de/xsd/routes_file.xsd">
    <vType id="passenger" vClass="passenger"/>
    <vehicle id="0" type="passenger" depart="5.00">
        <route edges="-719713925#1 -719713925#0 -35476022#3 -35476022#2 -35476022#1 -35476022#0 -35801387#16 35476003#0 35476003#1 35476003#2 562963760#18 562963760#19 562963760#20 562963760#21 320595639 320595614#3 320595614#0 35475494#2 35475494#3 35475494#4 35475494#5 35475494#6 35475528#2 35475561#0 35475561#1 -35475561#1"/>
    </vehicle>
    <vehicle id="1" type="passenger" depart="6.00">
        <route edges="35801571#0 35801571#1 -35546123#2 -35546123#1 -35546123#0 404636113#5 404636113#6 404636113#7 404636113#8 404636113#9 404636113#10 404636113#11 562963760#11 562963760#12 562963760#13 562963760#14 562963760#15 562963760#16 562963760#17 562963760#18 562963760#19 562963760#20 -719366293 -35545920#5 -35545924"/>
    </vehicle>
    <vehicle id="2" type="passenger" depart="7.00">
        <route edges="-338346846#1 -338346846#0 35673011#0 35673011#1 -35475561#21 -35475561#20 -35475561#19 -35475561#18 -35475561#17 -35475561#16 -35475561#15 -35475561#14 35475561#14"/>
    </vehicle>
    <vehicle id="3" type="passenger" depart="24.00">
        <route edges="-738548912#6 738548912#6 320595639 320595614#3 320595614#0 35475494#2 35475494#3 35475494#4 35475494#5 35475494#6 35475528#2 35475561#0 35475561#1 35475561#2 -740728768#8 -740728768#7 -740728768#6 -740728768#5 -740728768#4 -740728768#3 -740728768#2 -740728768#1 -740728768#0 -35672983#3 -35672983#2 -35672983#1"/>
    </vehicle>
    <vehicle id="4" type="passenger" depart="61.00">
        <route edges="-719713926 -719713925#0 -35476022#3 -35476022#2 338410720#0 -338410602#2 -338410602#1 -338410602#0 35801387#19 35801387#20 35801387#21 35801387#22 35801387#23 404636113#11 -562963760#10 -562963760#9 -562963760#8 -562963760#7 -562963760#6 -562963760#5 -562963760#4 446001016#0 446001016#1 446001016#2 446001016#3 446001016#4 446001016#5 -35801682#4 -35801682#3 -35801682#2 -35801682#1 719668508#0 719668508#1 -719668507#0"/>
    </vehicle>
    <vehicle id="5" type="passenger" depart="72.00">
        <route edges="338346796#1 -338346796#1 -338346796#0 -35475561#10 -35475561#9 -35475561#8 -35475561#7 -35475561#6 -35475561#5 -35475561#4 -35475561#3 -35475561#2 -35475561#1 -35475561#0 35475528#3 35475528#4 35475528#0 -35545953#4 -35545953#3 -35545953#2 35545953#2"/>
    </vehicle>
    <vehicle id="6" type="passenger" depart="80.00">
        <route edges="-338351125#4 -338351125#3 -338351125#2 -338351125#1 -338351125#0 740728768#5 740728768#6 740728768#7 740728768#8 -35475561#2 -35475561#1 -35475561#0 35475528#3 35475528#4 35475528#0 719367876#0 719367876#1 719367876#2 719366294 -562963760#21 -562963760#20 -562963760#19 -562963760#18 -562963760#17 -562963760#16 -738548914#1 -738548914#0 404636110#1 404636110#2 -35801387#19 338410602#0"/>
    </vehicle>
    <vehicle id="7" type="passenger" depart="149.00">
        <route edges="727453053#0 -727453053#0 -338346783#5 -338346783#4 -338346783#3 -338346783#2 -338346783#1 -338346783#0 338346773 320595417#3 320595417#0 35545690#0 35545690#1 35545690#2 -725091872 725091875#1"/>
    </vehicle>
    <vehicle id="8" type="passenger" depart="208.00">
        <route edges="35801588#0 35672989#1 35672989#2 35672989#3 35672989#4 35672989#5 35672989#6 -740728768#2 -740728768#1 35545801#0 35545801#1 35545801#2 35545801#3 35545801#4 35545801#5 35545801#6 35545801#7 35545801#8 35545801#9 35545801#10 35545801#11 740889766#0 740889766#1 35476085#12 35476085#13 35476085#14 35476085#15 -35476085#15"/>
    </vehicle>
    <vehicle id="9" type="passenger" depart="220.00">
        <route edges="338410587 562963760#2 562963760#3 562963760#4 562963760#5 562963760#6 562963760#7 562963760#8 562963760#9 562963760#10 -404636113#11 -404636113#10 -404636113#9 -404636113#8 -404636113#7 -404636113#6 -404636113#5 -404636113#4 -404636113#3 -404636113#2 -404636113#1 -404636113#0 740707962#0 740707962#1 740707962#2 740707962#3 740707962#4 740707962#5 35476022#9 35476022#10 35476022#11 35476022#12 -338410693"/>
    </vehicle>
    <vehicle id="10" type="passenger" depart="223.00">
        <route edges="740728768#3 740728768#4 740728768#5 740728768#6 740728768#7 740728768#8 -35475561#2 -35475561#1 -35475561#0 35475528#3 35475528#4 35475528#0 719367876#0 719367876#1 719367876#2 320595614#2 320595637 35476085#0 35476085#1 35476085#2 35476085#3 35476085#4 35476085#5 740163476 -740163476"/>
    </vehicle>
    <vehicle id="11" type="passenger" depart="236.00">
        <route edges="740728768#2 740728768#3 740728768#4 740728768#5 740728768#6 740728768#7 740728768#8 -35475561#2 -35475561#1 -35475561#0 35475528#3 35475528#4 35475528#0 719367876#0 719367876#1 719367876#2 719366294 -738548912#6 -738548912#5 -738548912#4 -738548912#3 -738548912#2 -738548912#1 -738548912#0 -35801387#13 -35801387#12 -35801387#11 -35801387#10 -35801387#9 -35801387#8 -35801387#7 -35801387#6 -35801387#5 -35801387#4 -35801387#3 -35801387#2 -35801387#1 35801387#1"/>
    </vehicle>
    <vehicle id="12" type="passenger" depart="336.00">
        <route edges="719367876#0 719367876#1 719367876#2 320595614#2 320595637 35476085#0 35476085#1 35476085#2 35476085#3 -35545714#12 -35545714#11 -35545714#10 -35545714#9 -35545714#8 -35545714#7 -35476027#14 -35476027#13"/>
    </vehicle>
    <vehicle id="13" type="passenger" depart="398.00">
        <route edges="-320595419#1 320595419#1 320595419#2 320595419#3 320595419#4 320595419#5 320595419#6 320595419#7 320595419#8 719374419#0 719374419#1 35545685#3 35545685#4 320595420 -719367875#3 -719367875#2 -719367875#1 -719367875#0 35475528#4 35475528#0 719367876#0 719367876#1 719367876#2 320595614#2 320595637 35476085#0 35476085#1 35476085#2 35476085#3 -35545714#12 -35545714#11 -35545714#10 -35545714#9 -35545714#8 -35545714#7 -35545714#6 -35545714#5 -35545714#4 -35545714#3 -35545714#2 -35545714#1"/>
    </vehicle>
    <vehicle id="14" type="passenger" depart="458.00">
        <route edges="35672996#0 35672996#1 -740728767#0 -740163477#3 -740163477#2 -740163477#1 -740163477#0 35545864#1 35545864#2 35545864#3 35545864#4 -35545714#12 -35545714#11 -35545714#10 -35545714#9 -35545714#8 -35545714#7 -35545714#6 -338346849#2 -338346849#1 -338346849#0 35801387#6 -35801484#3 -35801484#2 35801484#2"/>
    </vehicle>
    <vehicle id="16" type="passenger" depart="596.00">
        <route edges="-35475561#5 -35475561#4 338346766 719367875#2 719367875#3 719673202 35545685#1 35545685#2 35545685#3 35545707#0 35545707#1 35545707#2 35545707#3 35545707#4 35545707#5 320595417#2 320595416#0 320595416#1 320595416#2 320595416#3 320595416#4 320595416#5 320595416#6 320595416#7 341182872#0 341182873#0"/>
    </vehicle>
    <vehicle id="17" type="passenger" depart="617.00">
        <route edges="-740163478 -404636045#3 740163479#3 740163479#4 740163479#5 338346827#2 -35476085#0 35475494#0 35475494#1 320595614#1 719366294 -562963760#21 -562963760#20 -562963760#19 -562963760#18 -562963760#17 -562963760#16 -562963760#15 -35801579#2 -35801579#1 35801579#1"/>
    </vehicle>
    <vehicle id="18" type="passenger" depart="652.00">
        <route edges="-338351108#1 338351108#1 35545838#1 -35476085#8 -35476085#7 -35476085#6 -35476085#5 -35476085#4 -35545714#12 -35545714#11 -35545714#10 -35545714#9 -35545714#8 -35545714#7 -35545714#6 35545714#6"/>
    </vehicle>
    <vehicle id="19" type="passenger" depart="678.00">
        <route edges="338346823#1 -338346823#1 -338346823#0 35475561#16 35475561#17 35475561#18 35475561#19 35475561#20 -404636039#5 -740889757#0"/>
    </vehicle>
    <vehicle id="20" type="passenger" depart="715.00">
        <route edges="-35673031#3 -35673031#2 -35673031#1 -35673031#0 -35475561#21 -35475561#20 -35475561#19 -35475561#18 -35475561#17 -35475561#16 -35475561#15 -35475561#14 -35475561#13 -35475561#12 -35475561#11 -35475561#10 -35475561#9 -35475561#8 -35475561#7 -35475561#6 -35475561#5 -35475561#4 -35475561#3 -35475561#2 -35475561#1 -35475561#0 35475528#3 35475528#4 35475528#0 719367876#0 719367876#1 719367876#2 719366294 -738548912#6 -738548912#5 -738548912#4 -738548912#3 -738548912#2 -738548912#1 -738548912#0 -35801387#13 -35801387#12 -35801387#11 -35801387#10 -35801387#9 -35801387#8 338351086#0 338351086#1 35476022#7 35476022#8 35476022#9 -338346799#1"/>
    </vehicle>
    <vehicle id="21" type="passenger" depart="744.00">
        <route edges="320595420 719673202 35545685#1 35545685#2 35545685#3 35545707#0 35545707#1 35545707#2 35545707#3 35545707#4 35545707#5 320595417#2 320595416#0 320595416#1 725032542#0 725032542#1"/>
    </vehicle>
    <vehicle id="22" type="passenger" depart="757.00">
        <route edges="338346827#0 338346827#1 338346827#2 35476085#1 -562991400 -35545864#1 740163477#0 -35545834#10 -35545834#9 -35545834#8 -35545834#7 -35545834#6 -35545834#5 -740889761#8 338351087#0 338351087#1"/>
    </vehicle>
    <vehicle id="23" type="passenger" depart="787.00">
        <route edges="-35672983#3 338351106#0 35545801#1 35545801#2 35545801#3 35545801#4 35545801#5 35545801#6 35545801#7 35545801#8 35545801#9 35545801#10 35545801#11 740889766#0 740889766#1 -35476085#11 -35476085#10 -35476085#9 -35476085#8 -35476085#7 -35476085#6 -35476085#5 -35476085#4 -35545714#12 -35545714#11 -35545714#10 -35545714#9 -35545714#8 -35545714#7 -35545714#6 -338346849#2 -338346849#1 -338346849#0 -35801387#5"/>
    </vehicle>
    <vehicle id="24" type="passenger" depart="821.00">
        <route edges="-562963760#11 562963760#11 562963760#12 562963760#13 -719374424#8 -719374424#7 -719374424#6 -719374424#5 -719374424#4 -719374424#3 -719374424#2 -719374424#1 -719374424#0 719374425 320595417#1 338346763 338346783#0 338346783#1 -341182873#5"/>
    </vehicle>
    <vehicle id="25" type="passenger" depart="825.00">
        <route edges="35476045#4 35476045#5 35476045#6 338346808#0 719713924"/>
    </vehicle>
    <vehicle id="26" type="passenger" depart="853.00">
        <route edges="-338346842#0 35545690#6 320595420 -719367875#3 -719367875#2 -719367875#1 -719367875#0 35475528#4 35475528#0 719367876#0 719367876#1 719367876#2 320595614#2 320595637 35476085#0 35476085#1 35476085#2 35476085#3 35476085#4 35476085#5 35476085#6 35476085#7 35476085#8 35476085#9 35476085#10 35476085#11 35476085#12 35476085#13 35476085#14 35476085#15 744309307#0 -744309307#0"/>
    </vehicle>
    <vehicle id="27" type="passenger" depart="865.00">
        <route edges="719374424#2 719374424#3 719374424#4 719374424#5 35545920#0 35545920#1 35545920#2 35545920#3 35545920#4 35545920#5 35545920#6 719367876#2 320595614#2 320595637 35476085#0 35476085#1 35476085#2 35476085#3 -35545714#12 -35545714#11 -35545714#10 -35545714#9 -35545714#8 -35801490#2 -35801490#1"/>
    </vehicle>
    <vehicle id="28" type="passenger" depart="883.00">
        <route edges="-338346824#1 338346824#1 338346824#2 -338346760 320595419#5 320595419#6 320595419#7 320595419#8 719374419#0 719374419#1 35545685#3 35545707#0 35545707#1 35545707#2 35545707#3 35545707#4 35545707#5 320595417#2 320595416#0 320595416#1 320595416#2 320595416#3 320595416#4 320595416#5 341182964#1 35801682#0 719668508#0 719668509#0 719668509#1 -719668509#1"/>
    </vehicle>
    <vehicle id="29" type="passenger" depart="896.00">
        <route edges="-338351091 338351127#2 338351127#3 719374424#4 719374424#5 719374424#6 719374424#7 719374424#8 -562963760#13 -562963760#12 -562963760#11 -562963760#10 -562963760#9 -562963760#8 -562963760#7 -562963760#6 -562963760#5 -562963760#4 562963760#4"/>
    </vehicle>
    <vehicle id="30" type="passenger" depart="897.00">
        <route edges="35476027#17 -35476027#17 -35476027#16 -35476027#15 -35545714#6 -35545714#5 -35545714#4 -35545714#3 -35545714#2 -35545714#1 -404636050#2 -404636050#1 -404636050#0 35801387#3 35801387#4"/>
    </vehicle>
    <vehicle id="31" type="passenger" depart="937.00">
        <route edges="35476027#3 -35476027#3 -35476027#2 -35476027#1 -35476027#0 -404636113#3 35801534#0 35801534#1"/>
    </vehicle>
    <vehicle id="32" type="passenger" depart="976.00">
        <route edges="736531518#2 -736531518#2 -736531518#1 -736531518#0 -35801527#1 -35801527#0 35801387#11 -35476045#7 -35476045#6 -35476045#5 -35476045#4 -35476045#3 -35476045#2 -35476045#1 -35476045#0 -35545714#10"/>
    </vehicle>
    <vehicle id="33" type="passenger" depart="986.00">
        <route edges="338346800#3 338346800#4 338346800#5 338346800#6 725091872 35545690#3 35545690#4 35545690#5 35545690#6 35545685#5 35545685#0 35545685#1 35545685#2 35545685#3 35545707#0 35545707#1 -338346784#1 338346784#1"/>
    </vehicle>
    <vehicle id="34" type="passenger" depart="1002.00">
        <route edges="338346842#5 -338346842#5 -338346826#2 -338346826#1 -338346826#0 719367875#1 719367875#2 719367875#3 719673202 35545685#1 35545685#2 35545685#3 35545707#0 35545707#1 35545707#2 35545707#3 35545707#4 35545707#5 320595417#2 320595416#0 320595416#1 320595416#2 320595416#3 320595416#4 320595416#5 341182964#1 35801682#0 719668508#0 719668509#0 -719668507#1"/>
    </vehicle>
    <vehicle id="35" type="passenger" depart="1045.00">
        <route edges="-725032545#4 725032545#4 719374424#8 562963760#14 562963760#15 562963760#16 562963760#17 562963760#18 562963760#19 562963760#20 562963760#21 320595639 320595637 35476085#0 35476085#1 35476085#2 35476085#3 35476085#4 35476085#5 35476085#6 35476085#7 35476085#8 35476085#9 35476085#10 35476085#11 -740889766#1 -740889766#0 -35545801#11 -35545801#10 -35545801#9"/>
    </vehicle>
    <vehicle id="36" type="passenger" depart="1058.00">
        <route edges="341182964#0 341182964#1 320595418#4 320595418#5 320595418#6 320595418#7 320595418#8 320595418#9 320595418#10 320595418#11 320595417#0 35545690#0 35545690#1 35545690#2 35545690#3 35545690#4 35545690#5 35545690#6 320595420 -719367875#3 -719367875#2 -719367875#1 -719367875#0 35475528#4 35475528#0 719367876#0 719367876#1 719367876#2 320595614#2 320595637 35476085#0 35476085#1 35476085#2 35476085#3 35476085#4 35476085#5 35476085#6 35476085#7 35476085#8 -35545838#1 -338351108#1 338351108#1"/>
    </vehicle>
    <vehicle id="37" type="passenger" depart="1083.00">
        <route edges="338346811#1 338346811#2 -338346852#2 -338346852#1 -338346852#0 320595419#8 719374419#0 719374419#1 35545685#3 35545685#4 320595420 -719367875#3 -719367875#2 -719367875#1 -719367875#0 35475528#4 35475528#0 719367876#0 719367876#1 719367876#2 320595614#2 320595637 35476085#0 35476085#1 -562991400 -35545864#1 740163477#0 -35545834#10 -35545834#9 -35545834#8 338351095#0"/>
    </vehicle>
    <vehicle id="38" type="passenger" depart="1155.00">
        <route edges="35672999#1 -35672999#1 -35672999#0 35475561#6 35475561#7 35475561#8 35475561#9 35475561#10 35475561#11 35475561#12 35475561#13 35475561#14 35475561#15 35475561#16 35475561#17 35475561#18 35475561#19 35475561#20 35475561#21 35673031#0 -740889756"/>
    </vehicle>
    <vehicle id="39" type="passenger" depart="1178.00">
        <route edges="338346836#4 338346836#5 -338346783#3 -338346783#2 -338346783#1 -338346783#0 338346773 320595417#3 35546076 719374424#0 338351112#0"/>
    </vehicle>
    <vehicle id="40" type="passenger" depart="1189.00">
        <route edges="-35801698#1 35801686#0 35801686#1 562963760#5 562963760#6 562963760#7 562963760#8 562963760#9 562963760#10 562963760#11 562963760#12 562963760#13 562963760#14 562963760#15 562963760#16 562963760#17 562963760#18 562963760#19 562963760#20 562963760#21 320595639 320595614#3 320595614#0 35475494#2 35475494#3 35475494#4 35475494#5 35475494#6 35475528#2 35475561#0 35475561#1 35475561#2 35475561#3 35475561#4 35475561#5 35475561#6 35475561#7 35475561#8 35475561#9 35475561#10 35475561#11 35475561#12 35475561#13 35475561#14 35475561#15 35475561#16 35475561#17 35475561#18 35475561#19 35475561#20 35475561#21 35475561#22 35475561#23 338351119#0 338351119#1 338351119#2 338351119#3"/>
    </vehicle>
    <vehicle id="41" type="passenger" depart="1201.00">
        <route edges="-338410602#2 -338410602#1 -338410602#0 35801387#19 -404636110#2 -404636110#1 738548914#0 738548914#1 562963760#16 562963760#17 562963760#18 562963760#19 562963760#20 562963760#21 320595639 320595614#3 320595614#0 35475494#2 35475494#3 35475494#4 35475494#5 35475494#6 35475528#2 35475561#0 35475561#1 35475561#2 35475561#3 35475561#4 35475561#5 35475561#6 35475561#7 35475561#8 35475561#9 35475561#10 35475561#11 35475561#12 35475561#13 35475561#14 35475561#15 35475561#16 -338351124#3 -338351124#2 -338351124#1 -338351124#0 -338351116#1 -719668516"/>
    </vehicle>
    <vehicle id="42" type="passenger" depart="1261.00">
        <route edges="446001016#7 446001016#8 -338346818#2 -338346818#1 -338346818#0 320595418#2 320595418#3 320595418#4 320595418#5 320595418#6 320595418#7 320595418#8 320595418#9 320595418#10 320595418#11 320595417#0 35545690#0 35545690#1 35545690#2 35545690#3 338346798 725091879 -35546027#0"/>
    </vehicle>
    <vehicle id="43" type="passenger" depart="1324.00">
        <route edges="338346816#1 -338346816#1 -338346816#0 725032543#4 338351097 -338351112#1 338351112#1"/>
    </vehicle>
    <vehicle id="44" type="passenger" depart="1404.00">
        <route edges="-35545920#1 35545920#1 35545920#2 -35545930#10 -35545930#9 -35545930#8 -35545930#7 -35545930#6 35545953#0 35545953#1 35545953#2 35545953#3 35545953#4 35475528#1 35475528#2 35475561#0 35475561#1 35475561#2 35475561#3 35475561#4 35475561#5 35475561#6 35475561#7 35475561#8 35475561#9 35475561#10 35475561#11 35475561#12 35475561#13 35475561#14 35475561#15 35475561#16 35475561#17"/>
    </vehicle>
    <vehicle id="45" type="passenger" depart="1424.00">
        <route edges="35672991 744309306 740728772#0 -740728769#1 -740728769#0 740728768#7 740728768#8 -35475561#2 -35475561#1 -35475561#0 35475528#3 719367875#0 719367875#1 719367875#2 719367875#3 719673202 35545685#1 35545685#2 35545685#3 35545707#0 35545707#1 35545707#2 35545707#3 35545707#4 35545707#5 320595417#2 320595416#0 320595416#1 -725032543#7 -725032543#6 -725032543#5 -725032543#4 -725032543#3 -725032543#2"/>
    </vehicle>
    <vehicle id="46" type="passenger" depart="1440.00">
        <route edges="35475494#2 35475494#3 35475494#4 35475494#5 35475494#6 35475528#2 35475528#3 35475528#4 35475528#0 719367876#0 719367876#1 719367876#2 719366294 -562963760#21 -562963760#20 -562963760#19 -562963760#18 -562963760#17 -562963760#16 -562963760#15 -562963760#14 -562963760#13 -562963760#12 -562963760#11 -562963760#10 -562963760#9 -562963760#8 -562963760#7 -562963760#6 -562963760#5 -562963760#4 -562963760#3 -562963760#2 -562963760#1 338410528#0 338410528#1 338410528#2 -446001016#9"/>
    </vehicle>
    <vehicle id="47" type="passenger" depart="1602.00">
        <route edges="-35801571#0 -724037321#2 736521908#0 724037322#2 -724037321#0 562963760#6 562963760#7 562963760#8 562963760#9 562963760#10 562963760#11 562963760#12 562963760#13 562963760#14 562963760#15 562963760#16 562963760#17 562963760#18 562963760#19"/>
    </vehicle>
    <vehicle id="48" type="passenger" depart="1664.00">
        <route edges="338351111#1 35545801#7 35545801#8 35545801#9 35545801#10 35545801#11 740889766#0 740889766#1 -35476085#11 -35476085#10 -35476085#9 -35476085#8 -35476085#7 -35476085#6 -35476085#5 -35476085#4 -35545714#12 -35545714#11 -35545714#10 -35545714#9 -35545714#8 -35545714#7 -35476027#14 -35476027#13 -35476027#12 -35476027#11 -35476027#10 -35476027#9 -35476027#8 -35801387#8 338351086#0 338351086#1 35476022#7 35476022#8"/>
    </vehicle>
    <vehicle id="49" type="passenger" depart="1689.00">
        <route edges="35476047#0 -35476047#0 -35476027#12 -35476027#11 -35476027#10 -35476027#9 -35476027#8 -35476027#7 -35476027#6 -35476027#5 -35476027#4 -35476027#3 -35801526#4 -35801526#3 -35801526#2 35801526#2"/>
    </vehicle>
    <vehicle id="50" type="passenger" depart="1727.00">
        <route edges="725032543#7 -725032543#7 320595418#9 320595418#10 320595418#11 35546076 719374424#0 719374424#1 719374424#2 719374424#3 719374424#4 719374424#5 719374424#6 719374424#7 719374424#8 404636110#0 404636110#1 404636110#2 -35801387#19 338410602#0 338410602#1 338410602#2 338410602#3 338410602#4 338410602#5 35476027#4 35476022#5 35476022#6 35476022#7 35476022#8 -35476022#8"/>
    </vehicle>
    <vehicle id="51" type="passenger" depart="1753.00">
        <route edges="-446001017#2 -446001017#1 -446001017#0 446001016#3 338346832#0 338346832#1 338346832#2 338346832#3 725032543#2 725032543#3 725032543#4 338351097 -338351112#1 -338351112#0"/>
    </vehicle>
    <vehicle id="52" type="passenger" depart="1802.00">
        <route edges="35476085#4 -35476085#4 -35476085#3 -35476085#2 -35476085#1 -35476085#0 35475494#0 35475494#1 320595614#1 719366294 -562963760#21 -562963760#20 -562963760#19 -562963760#18 -562963760#17 -562963760#16 -562963760#15 -562963760#14 -719374424#8 -725032545#4 725032545#4"/>
    </vehicle>
    <vehicle id="53" type="passenger" depart="1811.00">
        <route edges="404636110#0 738548914#0 738548914#1 562963760#16 562963760#17 562963760#18 562963760#19 562963760#20 562963760#21 320595639 320595637 35476085#0 35476085#1 -562991400"/>
    </vehicle>
    <vehicle id="54" type="passenger" depart="1818.00">
        <route edges="-35801387#14 738548912#0 738548912#1 738548912#2 738548912#3 738548912#4 738548912#5 738548912#6 320595639 320595614#3 320595614#0 35475494#2 35475494#3 35475494#4 35475494#5 35475494#6 35475528#2 35475561#0 35475561#1 35475561#2 35475561#3 35475561#4 -404636041"/>
    </vehicle>
    <vehicle id="55" type="passenger" depart="1932.00">
        <route edges="-35476097#1 -35476097#0 -35476085#13 -35476085#12 -35476085#11 -35476085#10 -35476085#9 -35476085#8"/>
    </vehicle>
    <vehicle id="56" type="passenger" depart="1961.00">
        <route edges="740163477#0 -740163477#0 -35545864#0 35475494#1 320595614#1 719366294 -562963760#21 -562963760#20 -562963760#19 -404636047#1 -404636047#0 -35545920#3 -35545920#2 -35545920#1 338346800#0 338346800#1 338346800#2 338346800#3"/>
    </vehicle>
    <vehicle id="57" type="passenger" depart="1965.00">
        <route edges="320595419#4 320595419#5 320595419#6 320595419#7 320595419#8 719374419#0 719374419#1 35545685#3 35545685#4 320595420 -719367875#3 -35672999#1 338346822#0"/>
    </vehicle>
    <vehicle id="58" type="passenger" depart="1981.00">
        <route edges="446001017#3 -338410528#1 -338410528#0 562963760#1 562963760#2 562963760#3 562963760#4 562963760#5 562963760#6 562963760#7 562963760#8 562963760#9 562963760#10 -404636113#11 -35801387#23 -35801387#22 -35801387#21 -35801387#20 -35801387#19 338410602#0 338410602#1 338410602#2 338410602#3 338410602#4 338410602#5 35476027#4 35476027#5 338351121#0 338351086#1"/>
    </vehicle>
    <vehicle id="59" type="passenger" depart="1995.00">
        <route edges="-35546090#1 35546090#1 404636113#7 404636113#8 404636113#9 404636113#10 404636113#11 562963760#11 562963760#12 562963760#13 562963760#14 -35801579#2 -35801579#1 -35801579#0 -35545930#10 -35545930#9 -35545930#8 -35545930#7 35545930#7"/>
    </vehicle>
    <vehicle id="60" type="passenger" depart="2002.00">
        <route edges="-719367875#0 35475528#4 35475528#0 719367876#0 719367876#1 719367876#2 719366294 -562963760#21 -562963760#20 -562963760#19 -562963760#18 -562963760#17 -562963760#16 -562963760#15 -562963760#14 -562963760#13 -562963760#12 -562963760#11 -404636113#11 -404636113#10 -404636113#9 -404636113#8 -404636113#7 -404636113#6 -404636113#5 35546123#0 35546123#1 35546123#2 35546123#3 -35546123#3"/>
    </vehicle>
    <vehicle id="61" type="passenger" depart="2079.00">
        <route edges="-338346783#2 -338346783#1 -338346783#0 338346773 320595416#0 320595416#1 320595416#2 320595416#3 320595416#4 320595416#5 341182964#1 35801682#0 719668508#0 719668509#0 719668509#1 338346818#1 -35801672#1 -35801672#0"/>
    </vehicle>
    <vehicle id="62" type="passenger" depart="2091.00">
        <route edges="-35476042#0 -740163475#0 -740163474 35545714#9 35545714#10 35545714#11 35545714#12 -35476085#3 -35476085#2 -35476085#1 -35476085#0 35475494#0 35475494#1 320595614#1 719366294 -562963760#21 -562963760#20 -562963760#19 -562963760#18 -562963760#17 -562963760#16 -562963760#15 -562963760#14 -562963760#13 -562963760#12 -562963760#11 -562963760#10 -562963760#9 -562963760#8 -562963760#7 -562963760#6 -562963760#5 -562963760#4 -562963760#3 -562963760#2 -562963760#1 338410528#0 338410528#1 446001017#4 -338346797#1 -338346797#0 -338346786#1 338346786#1"/>
    </vehicle>
    <vehicle id="63" type="passenger" depart="2150.00">
        <route edges="35476027#10 35476027#11 35476027#12 35476027#13 35476027#14 35545714#7 35545714#8 35545714#9 35545714#10 35545714#11 35545714#12 -35476085#3 -35476085#2 -35476085#1 -35476085#0 35475494#0 35475494#1 35475494#2 35475494#3 35475494#4 35475494#5 35475494#6 35475528#2 35475561#0 35475561#1 35475561#2 -740728768#8 -740728768#7 -740728768#6 -740728768#5 -740728768#4 -740728768#3 -35672989#6 -35672989#5"/>
    </vehicle>
    <vehicle id="64" type="passenger" depart="2163.00">
        <route edges="35476085#4 35476085#5 35476085#6 35476085#7 35476085#8 35476085#9 35476085#10 35476085#11 -740889766#1 -740889766#0 -35545801#11 -35545801#10 -35545801#9 -35545801#8 -35545801#7 -35545801#6 -35545801#5 -35545801#4 35672981#2 35672981#3 -35672981#3"/>
    </vehicle>
    <vehicle id="65" type="passenger" depart="2197.00">
        <route edges="-719367875#1 -338346743 -35475561#1"/>
    </vehicle>
    <vehicle id="66" type="passenger" depart="2235.00">
        <route edges="-740138824#0 -35476027#17 -35476027#16 -35476027#15 35545714#7 35545714#8 35545714#9 35545714#10 35545714#11 35545714#12 -35545864#4 -35545864#3 -719668519#1 -338351084#1 740728774"/>
    </vehicle>
    <vehicle id="67" type="passenger" depart="2294.00">
        <route edges="-35545920#3 -35545920#2 -35545920#1 -35545920#0 -719374424#5 -719374424#4 -719374424#3 -719374424#2 -719374424#1 -719374424#0 719374425 320595417#1 320595417#2 320595416#0 320595416#1 320595416#2 320595416#3 320595416#4 320595416#5 320595416#6 320595416#7 320595416#8"/>
    </vehicle>
    <vehicle id="68" type="passenger" depart="2332.00">
        <route edges="35545852 35476029#2 338351117 -35476085#9 -35476085#8 -35476085#7 -35476085#6 -35476085#5 -35476085#4 -35476085#3 -35476085#2 -35476085#1 -35476085#0 35475494#0 35475494#1 35475494#2 35475494#3 35475494#4 35475494#5 35475494#6 35475528#2 35475528#3 719367875#0 719367875#1 719367875#2 719367875#3 719673202 35545685#1 35545685#2 35545685#3 35545707#0 35545707#1 35545707#2 35545707#3 35545707#4 35545707#5 338346763 338346783#0 338346783#1 338346783#2 338346783#3 -338346836#5"/>
    </vehicle>
    <vehicle id="69" type="passenger" depart="2337.00">
        <route edges="-446001019#0 -446001016#4 -446001016#3 -446001016#2 -446001016#1 -446001016#0 562963760#4 562963760#5 562963760#6 562963760#7 562963760#8 562963760#9 562963760#10 -404636113#11 -404636113#10 -404636113#9 -404636113#8 -404636113#7 -404636113#6 -404636113#5 -404636113#4 -404636113#3 -404636113#2 -404636113#1 338346770 736531515#2 338346744"/>
    </vehicle>
    <vehicle id="70" type="passenger" depart="2356.00">
        <route edges="320595416#2 320595416#3 320595416#4 320595416#5 341182964#1 320595418#4 320595418#5 320595418#6 320595418#7 320595418#8 320595418#9 320595418#10 320595418#11 320595417#0 35545690#0 35545690#1 35545690#2 35545690#3 35545690#4 35545690#5 35545690#6 320595420 -719367875#3 -719367875#2 -719367875#1 -338346743 35475561#2 -740728768#8 -740728768#7 -740728768#6 -740728768#5 338351125#0 338351125#1 338351125#2 338351125#3 338351125#4 719668517#2"/>
    </vehicle>
    <vehicle id="71" type="passenger" depart="2380.00">
        <route edges="404636113#7 404636113#8 404636113#9 404636113#10 404636113#11 562963760#11 562963760#12 562963760#13 562963760#14 562963760#15 562963760#16 562963760#17 562963760#18 562963760#19 562963760#20 562963760#21 320595639 320595614#3 320595614#0 35475494#2 35475494#3 35475494#4 35475494#5 35475494#6 35475528#2 35475528#3 719367875#0 719367875#1 719367875#2 719367875#3 719673202"/>
    </vehicle>
    <vehicle id="72" type="passenger" depart="2386.00">
        <route edges="-35475561#17 -35475561#16 -35475561#15 -35475561#14 -35475561#13 -35475561#12 -35475561#11 -35475561#10 -35475561#9 -35475561#8 -35475561#7 -35475561#6 -35475561#5 -35475561#4 -35475561#3 -35475561#2 -35475561#1 -35475561#0 35475528#3 35475528#4 35475528#0 719367876#0 719367876#1 719367876#2 320595614#2 320595637 35476085#0 35476085#1 35476085#2 35476085#3 -35545714#12 404636045#0 35476032"/>
    </vehicle>
    <vehicle id="73" type="passenger" depart="2387.00">
        <route edges="-738548914#0 -404636110#0 -719374424#8 -719374424#7 -719374424#6 -719374424#5 -719374424#4 -719374424#3 -719374424#2 -719374424#1 -719374424#0 719374425 320595417#1 338346763 338346783#0 338346783#1 338346783#2 338346783#3 338346783#4 -338346846#4 -338346846#3 -338346846#2 338346807#0"/>
    </vehicle>
    <vehicle id="74" type="passenger" depart="2459.00">