<?xml version="1.0" encoding="UTF-8"?>

<!-- generated on 2024-10-20 15:32:11 by Eclipse SUMO netconvert Version 1.19.0
<configuration xmlns:xsi="http://www.w3.org/2001/XMLSchema-instance" xsi:noNamespaceSchemaLocation="http://sumo.dlr.de/xsd/netconvertConfiguration.xsd">

    <input>
        <osm-files value="C:\Users\MONSTER\Documents\GitHub\SUMOScripts\SUMO-1\my_data2\osm\Harmancik.osm.xml"/>
    </input>

    <output>
        <output-file value="C:\Users\MONSTER\Documents\GitHub\SUMOScripts\SUMO-1\my_data2\osm\Harmancik.net.xml"/>
    </output>

    <projection>
        <proj.utm value="true"/>
    </projection>

</configuration>
-->

<net version="1.16" junctionCornerDetail="5" limitTurnSpeed="5.50" xmlns:xsi="http://www.w3.org/2001/XMLSchema-instance" xsi:noNamespaceSchemaLocation="http://sumo.dlr.de/xsd/net_file.xsd">

    <location netOffset="-679642.35,-4392964.59" convBoundary="0.00,0.00,7949.65,4969.15" origBoundary="29.094327,39.665647,29.188357,39.710661" projParameter="+proj=utm +zone=35 +ellps=WGS84 +datum=WGS84 +units=m +no_defs"/>

    <type id="highway.living_street" priority="2" numLanes="1" speed="2.78" disallow="tram rail_urban rail rail_electric rail_fast ship" oneway="0"/>
    <type id="highway.residential" priority="3" numLanes="1" speed="13.89" disallow="tram rail_urban rail rail_electric rail_fast ship" oneway="0"/>
    <type id="highway.secondary" priority="11" numLanes="1" speed="27.78" disallow="tram rail_urban rail rail_electric rail_fast ship" oneway="0"/>
    <type id="highway.service" priority="1" numLanes="1" speed="5.56" allow="pedestrian delivery bicycle" oneway="0"/>
    <type id="highway.tertiary" priority="10" numLanes="1" speed="22.22" disallow="tram rail_urban rail rail_electric rail_fast ship" oneway="0"/>
    <type id="highway.trunk" priority="13" numLanes="2" speed="27.78" disallow="pedestrian bicycle tram rail_urban rail rail_electric rail_fast ship" oneway="0"/>
    <type id="highway.trunk_link" priority="8" numLanes="1" speed="22.22" disallow="pedestrian bicycle tram rail_urban rail rail_electric rail_fast ship" oneway="0"/>

    <edge id=":12153667570_0" function="internal">
        <lane id=":12153667570_0_0" index="0" disallow="pedestrian bicycle tram rail_urban rail rail_electric rail_fast ship" speed="5.99" length="9.08" shape="4448.93,918.68 4446.42,919.34 4444.96,920.62 4444.56,922.52 4445.21,925.04"/>
    </edge>
    <edge id=":12153667570_1" function="internal">
        <lane id=":12153667570_1_0" index="0" disallow="pedestrian bicycle tram rail_urban rail rail_electric rail_fast ship" speed="27.78" length="12.76" shape="4448.93,918.68 4436.15,919.86"/>
        <lane id=":12153667570_1_1" index="1" disallow="pedestrian bicycle tram rail_urban rail rail_electric rail_fast ship" speed="27.78" length="12.76" shape="4448.56,915.50 4435.94,916.67"/>
    </edge>
    <edge id=":12153667570_3" function="internal">
        <lane id=":12153667570_3_0" index="0" disallow="pedestrian bicycle tram rail_urban rail rail_electric rail_fast ship" speed="22.22" length="14.98" shape="4437.46,912.28 4439.77,915.23 4441.83,918.36 4443.64,921.63 4445.21,925.04"/>
    </edge>
    <edge id=":12153667570_4" function="internal">
        <lane id=":12153667570_4_0" index="0" disallow="pedestrian bicycle tram rail_urban rail rail_electric rail_fast ship" speed="4.85" length="6.75" shape="4437.46,912.28 4438.66,914.08 4438.81,915.41 4437.90,916.27 4435.94,916.67"/>
    </edge>
    <edge id=":12153667571_0" function="internal">
        <lane id=":12153667571_0_0" index="0" disallow="pedestrian bicycle tram rail_urban rail rail_electric rail_fast ship" speed="27.78" length="14.27" shape="4426.35,906.07 4440.55,904.21"/>
        <lane id=":12153667571_0_1" index="1" disallow="pedestrian bicycle tram rail_urban rail rail_electric rail_fast ship" speed="27.78" length="14.27" shape="4426.83,909.23 4440.94,907.39"/>
    </edge>
    <edge id=":12153667571_2" function="internal">
        <lane id=":12153667571_2_0" index="0" disallow="pedestrian bicycle tram rail_urban rail rail_electric rail_fast ship" speed="9.57" length="11.32" shape="4426.83,909.23 4430.24,909.11 4433.12,909.55 4435.49,910.55 4437.33,912.13"/>
    </edge>
    <edge id=":12153667571_3" function="internal">
        <lane id=":12153667571_3_0" index="0" disallow="pedestrian bicycle tram rail_urban rail rail_electric rail_fast ship" speed="7.61" length="11.21" shape="4432.53,913.29 4433.12,911.08 4434.72,909.36 4437.32,908.13 4440.94,907.39"/>
    </edge>
    <edge id=":12153667571_4" function="internal">
        <lane id=":12153667571_4_0" index="0" disallow="pedestrian bicycle tram rail_urban rail rail_electric rail_fast ship" speed="5.07" length="8.28" shape="4432.53,913.29 4432.92,910.77 4433.85,909.74 4435.32,910.19 4437.33,912.13"/>
    </edge>
    <edge id=":2189514855_0" function="internal">
        <lane id=":2189514855_0_0" index="0" disallow="tram rail_urban rail rail_electric rail_fast ship" speed="3.65" length="4.67" shape="6572.35,327.95 6573.66,328.55 6574.18,329.28 6573.90,330.13 6572.84,331.11"/>
    </edge>
    <edge id=":2189514979_0" function="internal">
        <lane id=":2189514979_0_0" index="0" disallow="tram rail_urban rail rail_electric rail_fast ship" speed="14.57" length="16.34" shape="5781.45,568.88 5777.52,569.82 5773.41,571.06 5769.64,572.84 5766.76,575.38"/>
    </edge>
    <edge id=":2189514979_1" function="internal">
        <lane id=":2189514979_1_0" index="0" disallow="tram rail_urban rail rail_electric rail_fast ship" speed="7.51" length="20.67" shape="5781.45,568.88 5774.74,569.76 5771.44,568.42 5771.52,564.85 5775.01,559.05"/>
    </edge>
    <edge id=":2189514979_2" function="internal">
        <lane id=":2189514979_2_0" index="0" disallow="tram rail_urban rail rail_electric rail_fast ship" speed="3.65" length="4.67" shape="5781.45,568.88 5780.10,568.38 5779.52,567.69 5779.73,566.82 5780.71,565.76"/>
    </edge>
    <edge id=":2189514979_3" function="internal">
        <lane id=":2189514979_3_0" index="0" disallow="tram rail_urban rail rail_electric rail_fast ship" speed="5.46" length="10.08" shape="5777.57,560.97 5775.87,563.80 5775.83,565.54 5777.44,566.20 5780.71,565.76"/>
    </edge>
    <edge id=":2189514979_4" function="internal">
        <lane id=":2189514979_4_0" index="0" disallow="tram rail_urban rail rail_electric rail_fast ship" speed="27.78" length="18.01" shape="5777.57,560.97 5766.76,575.38"/>
    </edge>
    <edge id=":2189514979_5" function="internal">
        <lane id=":2189514979_5_0" index="0" disallow="tram rail_urban rail rail_electric rail_fast ship" speed="3.65" length="1.44" shape="5777.57,560.97 5776.21,561.45"/>
    </edge>
    <edge id=":2189514979_9" function="internal">
        <lane id=":2189514979_9_0" index="0" disallow="tram rail_urban rail rail_electric rail_fast ship" speed="3.65" length="3.23" shape="5776.21,561.45 5775.33,561.29 5774.93,560.49 5775.01,559.05"/>
    </edge>
    <edge id=":2189514979_6" function="internal">
        <lane id=":2189514979_6_0" index="0" disallow="tram rail_urban rail rail_electric rail_fast ship" speed="27.78" length="18.01" shape="5764.20,573.46 5775.01,559.05"/>
    </edge>
    <edge id=":2189514979_7" function="internal">
        <lane id=":2189514979_7_0" index="0" disallow="tram rail_urban rail rail_electric rail_fast ship" speed="15.47" length="3.37" shape="5764.20,573.46 5766.76,571.25"/>
    </edge>
    <edge id=":2189514979_8" function="internal">
        <lane id=":2189514979_8_0" index="0" disallow="tram rail_urban rail rail_electric rail_fast ship" speed="3.65" length="1.44" shape="5764.20,573.46 5765.56,572.98"/>
    </edge>
    <edge id=":2189514979_10" function="internal">
        <lane id=":2189514979_10_0" index="0" disallow="tram rail_urban rail rail_electric rail_fast ship" speed="15.47" length="15.09" shape="5766.76,571.25 5767.36,570.73 5771.76,568.54 5776.50,566.89 5780.71,565.76"/>
    </edge>
    <edge id=":2189514979_11" function="internal">
        <lane id=":2189514979_11_0" index="0" disallow="tram rail_urban rail rail_electric rail_fast ship" speed="3.65" length="3.23" shape="5765.56,572.98 5766.44,573.14 5766.84,573.94 5766.76,575.38"/>
    </edge>
    <edge id=":2189515164_0" function="internal">
        <lane id=":2189515164_0_0" index="0" disallow="pedestrian bicycle tram rail_urban rail rail_electric rail_fast ship" speed="8.33" length="9.93" shape="5475.62,810.85 5478.56,811.26 5481.08,811.06 5483.17,810.24 5484.83,808.80"/>
    </edge>
    <edge id=":2189515164_1" function="internal">
        <lane id=":2189515164_1_0" index="0" disallow="pedestrian bicycle tram rail_urban rail rail_electric rail_fast ship" speed="27.78" length="10.81" shape="5475.62,810.85 5478.82,811.59 5481.00,812.17 5483.12,812.91 5486.17,814.12"/>
        <lane id=":2189515164_1_1" index="1" disallow="pedestrian bicycle tram rail_urban rail rail_electric rail_fast ship" speed="27.78" length="10.81" shape="5474.91,813.97 5477.96,814.68 5480.03,815.23 5482.06,815.94 5484.97,817.09"/>
    </edge>
    <edge id=":2189515164_3" function="internal">
        <lane id=":2189515164_3_0" index="0" disallow="tram rail_urban rail rail_electric rail_fast ship" speed="27.78" length="13.02" shape="5476.74,819.01 5484.83,808.80"/>
    </edge>
    <edge id=":2189515164_4" function="internal">
        <lane id=":2189515164_4_0" index="0" disallow="pedestrian bicycle tram rail_urban rail rail_electric rail_fast ship" speed="7.26" length="9.17" shape="5476.74,819.01 5478.39,817.38 5480.32,816.52 5482.51,816.43 5484.97,817.09"/>
    </edge>
    <edge id=":2189515175_0" function="internal">
        <lane id=":2189515175_0_0" index="0" disallow="pedestrian bicycle tram rail_urban rail rail_electric rail_fast ship" speed="6.89" length="9.64" shape="5299.24,816.59 5296.84,817.10 5295.09,818.34 5294.01,820.34 5293.59,823.08"/>
    </edge>
    <edge id=":2189515175_1" function="internal">
        <lane id=":2189515175_1_0" index="0" disallow="pedestrian bicycle tram rail_urban rail rail_electric rail_fast ship" speed="27.78" length="14.67" shape="5299.24,816.59 5284.75,817.83"/>
        <lane id=":2189515175_1_1" index="1" disallow="pedestrian bicycle tram rail_urban rail rail_electric rail_fast ship" speed="27.78" length="14.67" shape="5299.09,813.40 5284.37,814.65"/>
    </edge>
    <edge id=":2189515175_3" function="internal">
        <lane id=":2189515175_3_0" index="0" disallow="pedestrian bicycle tram rail_urban rail rail_electric rail_fast ship" speed="6.21" length="9.05" shape="5290.39,822.99 5290.10,820.47 5289.06,818.77 5287.28,817.89 5284.75,817.83"/>
    </edge>
    <edge id=":2189515175_4" function="internal">
        <lane id=":2189515175_4_0" index="0" disallow="tram rail_urban rail rail_electric rail_fast ship" speed="3.65" length="4.67" shape="5290.39,822.99 5291.23,821.81 5292.04,821.43 5292.83,821.85 5293.59,823.08"/>
    </edge>
    <edge id=":2189515181_0" function="internal">
        <lane id=":2189515181_0_0" index="0" disallow="pedestrian bicycle tram rail_urban rail rail_electric rail_fast ship" speed="7.06" length="9.79" shape="5176.38,830.75 5174.02,831.42 5172.34,832.81 5171.32,834.90 5170.96,837.71"/>
    </edge>
    <edge id=":2189515181_1" function="internal">
        <lane id=":2189515181_1_0" index="0" disallow="pedestrian bicycle tram rail_urban rail rail_electric rail_fast ship" speed="27.78" length="14.55" shape="5176.38,830.75 5162.00,832.68"/>
        <lane id=":2189515181_1_1" index="1" disallow="pedestrian bicycle tram rail_urban rail rail_electric rail_fast ship" speed="27.78" length="14.55" shape="5176.00,827.57 5161.53,829.51"/>
    </edge>
    <edge id=":2189515181_3" function="internal">
        <lane id=":2189515181_3_0" index="0" disallow="pedestrian bicycle tram rail_urban rail rail_electric rail_fast ship" speed="6.20" length="9.05" shape="5167.76,837.69 5167.42,835.18 5166.34,833.50 5164.53,832.67 5162.00,832.68"/>
    </edge>
    <edge id=":2189515181_4" function="internal">
        <lane id=":2189515181_4_0" index="0" disallow="tram rail_urban rail rail_electric rail_fast ship" speed="3.65" length="4.67" shape="5167.76,837.69 5168.57,836.49 5169.37,836.10 5170.17,836.50 5170.96,837.71"/>
    </edge>
    <edge id=":2189515204_0" function="internal">
        <lane id=":2189515204_0_0" index="0" disallow="tram rail_urban rail rail_electric rail_fast ship" speed="3.65" length="4.67" shape="5354.86,867.11 5356.04,866.29 5356.94,866.22 5357.53,866.88 5357.83,868.29"/>
    </edge>
    <edge id=":2189515208_0" function="internal">
        <lane id=":2189515208_0_0" index="0" disallow="pedestrian bicycle tram rail_urban rail rail_electric rail_fast ship" speed="6.50" length="9.03" shape="4956.60,868.59 4955.96,866.20 4954.72,864.59 4952.85,863.75 4950.38,863.70"/>
    </edge>
    <edge id=":2189515208_1" function="internal">
        <lane id=":2189515208_1_0" index="0" disallow="tram rail_urban rail rail_electric rail_fast ship" speed="3.65" length="4.67" shape="4956.60,868.59 4957.25,867.31 4958.00,866.82 4958.84,867.12 4959.78,868.22"/>
    </edge>
    <edge id=":2189515208_2" function="internal">
        <lane id=":2189515208_2_0" index="0" disallow="pedestrian bicycle tram rail_urban rail rail_electric rail_fast ship" speed="6.60" length="9.11" shape="4964.61,861.79 4962.25,862.50 4960.65,863.81 4959.83,865.71 4959.78,868.22"/>
    </edge>
    <edge id=":2189515208_3" function="internal">
        <lane id=":2189515208_3_0" index="0" disallow="pedestrian bicycle tram rail_urban rail rail_electric rail_fast ship" speed="27.78" length="14.31" shape="4964.61,861.79 4950.38,863.70"/>
        <lane id=":2189515208_3_1" index="1" disallow="pedestrian bicycle tram rail_urban rail rail_electric rail_fast ship" speed="27.78" length="14.31" shape="4964.14,858.63 4950.00,860.52"/>
    </edge>
    <edge id=":2189515216_0" function="internal">
        <lane id=":2189515216_0_0" index="0" disallow="pedestrian bicycle tram rail_urban rail rail_electric rail_fast ship" speed="6.63" length="8.62" shape="4881.57,871.97 4879.40,872.57 4877.85,873.76 4876.94,875.55 4876.65,877.94"/>
    </edge>
    <edge id=":2189515216_1" function="internal">
        <lane id=":2189515216_1_0" index="0" disallow="pedestrian bicycle tram rail_urban rail rail_electric rail_fast ship" speed="27.78" length="10.38" shape="4881.57,871.97 4871.27,873.21"/>
        <lane id=":2189515216_1_1" index="1" disallow="pedestrian bicycle tram rail_urban rail rail_electric rail_fast ship" speed="27.78" length="10.38" shape="4881.19,868.80 4870.89,870.03"/>
    </edge>
    <edge id=":2189515217_0" function="internal">
        <lane id=":2189515217_0_0" index="0" allow="delivery" speed="7.29" length="6.37" shape="4752.19,866.54 4753.34,866.16 4754.46,865.32 4755.54,864.00 4756.58,862.22"/>
    </edge>
    <edge id=":2189515217_1" function="internal">
        <lane id=":2189515217_1_0" index="0" disallow="pedestrian bicycle tram rail_urban rail rail_electric rail_fast ship" speed="27.78" length="6.88" shape="4752.19,866.54 4759.01,865.68"/>
        <lane id=":2189515217_1_1" index="1" disallow="pedestrian bicycle tram rail_urban rail rail_electric rail_fast ship" speed="27.78" length="6.88" shape="4752.58,869.71 4759.41,868.86"/>
    </edge>
    <edge id=":2189515218_0" function="internal">
        <lane id=":2189515218_0_0" index="0" disallow="pedestrian bicycle tram rail_urban rail rail_electric rail_fast ship" speed="6.29" length="9.04" shape="4865.57,879.68 4865.17,877.20 4864.07,875.52 4862.26,874.65 4859.75,874.59"/>
    </edge>
    <edge id=":2189515218_1" function="internal">
        <lane id=":2189515218_1_0" index="0" disallow="pedestrian bicycle tram rail_urban rail rail_electric rail_fast ship" speed="27.78" length="11.22" shape="4870.89,873.26 4859.75,874.59"/>
        <lane id=":2189515218_1_1" index="1" disallow="pedestrian bicycle tram rail_urban rail rail_electric rail_fast ship" speed="27.78" length="11.22" shape="4870.50,870.08 4859.36,871.42"/>
    </edge>
    <edge id=":2189515225_0" function="internal">
        <lane id=":2189515225_0_0" index="0" disallow="pedestrian bicycle tram rail_urban rail rail_electric rail_fast ship" speed="10.10" length="12.95" shape="4749.95,892.00 4747.17,888.89 4744.49,886.74 4741.91,885.53 4739.43,885.28"/>
    </edge>
    <edge id=":2189515225_1" function="internal">
        <lane id=":2189515225_1_0" index="0" disallow="tram rail_urban rail rail_electric rail_fast ship" speed="3.65" length="4.67" shape="4749.95,892.00 4749.84,890.56 4750.21,889.75 4751.09,889.57 4752.46,890.01"/>
    </edge>
    <edge id=":2189515225_2" function="internal">
        <lane id=":2189515225_2_0" index="0" disallow="pedestrian bicycle tram rail_urban rail rail_electric rail_fast ship" speed="5.60" length="9.32" shape="4755.09,883.97 4752.31,884.56 4750.95,885.76 4751.00,887.58 4752.46,890.01"/>
    </edge>
    <edge id=":2189515225_3" function="internal">
        <lane id=":2189515225_3_0" index="0" disallow="pedestrian bicycle tram rail_urban rail rail_electric rail_fast ship" speed="27.78" length="15.73" shape="4755.09,883.97 4739.43,885.28"/>
        <lane id=":2189515225_3_1" index="1" disallow="pedestrian bicycle tram rail_urban rail rail_electric rail_fast ship" speed="27.78" length="15.73" shape="4754.84,880.78 4739.14,882.09"/>
    </edge>
    <edge id=":2189515236_0" function="internal">
        <lane id=":2189515236_0_0" index="0" disallow="tram rail_urban rail rail_electric rail_fast ship" speed="6.35" length="9.56" shape="5295.92,920.64 5293.44,920.08 5291.47,920.58 5289.98,922.16 5289.00,924.80"/>
    </edge>
    <edge id=":2189515236_1" function="internal">
        <lane id=":2189515236_1_0" index="0" disallow="tram rail_urban rail rail_electric rail_fast ship" speed="13.89" length="15.08" shape="5295.92,920.64 5292.35,919.47 5288.64,918.74 5284.87,918.44 5281.11,918.55"/>
    </edge>
    <edge id=":2189515236_2" function="internal">
        <lane id=":2189515236_2_0" index="0" disallow="tram rail_urban rail rail_electric rail_fast ship" speed="9.47" length="14.80" shape="5295.92,920.64 5292.34,918.70 5289.82,916.17 5288.35,913.06 5287.93,909.36"/>
    </edge>
    <edge id=":2189515236_3" function="internal">
        <lane id=":2189515236_3_0" index="0" disallow="tram rail_urban rail rail_electric rail_fast ship" speed="3.65" length="4.67" shape="5295.92,920.64 5295.10,919.45 5295.03,918.56 5295.70,917.97 5297.11,917.67"/>
    </edge>
    <edge id=":2189515236_4" function="internal">
        <lane id=":2189515236_4_0" index="0" disallow="tram rail_urban rail rail_electric rail_fast ship" speed="8.19" length="10.89" shape="5291.13,909.45 5291.45,912.12 5292.55,914.38 5294.43,916.23 5297.11,917.67"/>
    </edge>
    <edge id=":2189515236_5" function="internal">
        <lane id=":2189515236_5_0" index="0" disallow="tram rail_urban rail rail_electric rail_fast ship" speed="13.89" length="15.52" shape="5291.13,909.45 5290.90,913.27 5290.44,917.17 5289.79,921.05 5289.00,924.80"/>
    </edge>
    <edge id=":2189515236_6" function="internal">
        <lane id=":2189515236_6_0" index="0" disallow="tram rail_urban rail rail_electric rail_fast ship" speed="8.57" length="4.01" shape="5291.13,909.45 5290.42,913.13 5290.27,913.35"/>
    </edge>
    <edge id=":2189515236_7" function="internal">
        <lane id=":2189515236_7_0" index="0" disallow="tram rail_urban rail rail_electric rail_fast ship" speed="3.65" length="1.44" shape="5291.13,909.45 5290.30,910.63"/>
    </edge>
    <edge id=":2189515236_16" function="internal">
        <lane id=":2189515236_16_0" index="0" disallow="tram rail_urban rail rail_electric rail_fast ship" speed="8.57" length="11.05" shape="5290.27,913.35 5288.51,915.87 5285.41,917.68 5281.11,918.55"/>
    </edge>
    <edge id=":2189515236_17" function="internal">
        <lane id=":2189515236_17_0" index="0" disallow="tram rail_urban rail rail_electric rail_fast ship" speed="3.65" length="3.23" shape="5290.30,910.63 5289.49,911.00 5288.70,910.58 5287.93,909.36"/>
    </edge>
    <edge id=":2189515236_8" function="internal">
        <lane id=":2189515236_8_0" index="0" disallow="tram rail_urban rail rail_electric rail_fast ship" speed="7.19" length="10.31" shape="5280.85,915.36 5283.89,914.77 5286.09,913.57 5287.43,911.77 5287.93,909.36"/>
    </edge>
    <edge id=":2189515236_9" function="internal">
        <lane id=":2189515236_9_0" index="0" disallow="tram rail_urban rail rail_electric rail_fast ship" speed="13.89" length="16.54" shape="5280.85,915.36 5284.84,915.28 5289.11,915.66 5293.32,916.46 5297.11,917.67"/>
    </edge>
    <edge id=":2189515236_10" function="internal">
        <lane id=":2189515236_10_0" index="0" disallow="tram rail_urban rail rail_electric rail_fast ship" speed="7.56" length="15.53" shape="5280.85,915.36 5285.31,915.62 5288.16,917.29 5289.39,920.34 5289.00,924.80"/>
    </edge>
    <edge id=":2189515236_11" function="internal">
        <lane id=":2189515236_11_0" index="0" disallow="tram rail_urban rail rail_electric rail_fast ship" speed="3.65" length="4.67" shape="5280.85,915.36 5282.11,916.06 5282.58,916.82 5282.24,917.65 5281.11,918.55"/>
    </edge>
    <edge id=":2189515236_12" function="internal">
        <lane id=":2189515236_12_0" index="0" disallow="tram rail_urban rail rail_electric rail_fast ship" speed="5.94" length="9.09" shape="5285.88,924.07 5286.11,921.47 5285.39,919.68 5283.72,918.70 5281.11,918.55"/>
    </edge>
    <edge id=":2189515236_13" function="internal">
        <lane id=":2189515236_13_0" index="0" disallow="tram rail_urban rail rail_electric rail_fast ship" speed="13.89" length="14.88" shape="5285.88,924.07 5286.66,920.42 5287.28,916.76 5287.71,913.08 5287.93,909.36"/>
    </edge>
    <edge id=":2189515236_14" function="internal">
        <lane id=":2189515236_14_0" index="0" disallow="tram rail_urban rail rail_electric rail_fast ship" speed="7.87" length="4.32" shape="5285.88,924.07 5287.41,920.03"/>
    </edge>
    <edge id=":2189515236_15" function="internal">
        <lane id=":2189515236_15_0" index="0" disallow="tram rail_urban rail rail_electric rail_fast ship" speed="3.65" length="1.44" shape="5285.88,924.07 5286.93,923.09"/>
    </edge>
    <edge id=":2189515236_18" function="internal">
        <lane id=":2189515236_18_0" index="0" disallow="tram rail_urban rail rail_electric rail_fast ship" speed="7.87" length="11.00" shape="5287.41,920.03 5287.45,919.93 5289.85,917.48 5293.07,916.73 5297.11,917.67"/>
    </edge>
    <edge id=":2189515236_19" function="internal">
        <lane id=":2189515236_19_0" index="0" disallow="tram rail_urban rail rail_electric rail_fast ship" speed="3.65" length="3.23" shape="5286.93,923.09 5287.80,922.88 5288.49,923.45 5289.00,924.80"/>
    </edge>
    <edge id=":2189515238_0" function="internal">
        <lane id=":2189515238_0_0" index="0" disallow="pedestrian bicycle tram rail_urban rail rail_electric rail_fast ship" speed="6.44" length="9.03" shape="4663.79,897.91 4663.20,895.49 4661.98,893.87 4660.12,893.05 4657.63,893.01"/>
    </edge>
    <edge id=":2189515238_1" function="internal">
        <lane id=":2189515238_1_0" index="0" disallow="tram rail_urban rail rail_electric rail_fast ship" speed="3.65" length="4.67" shape="4663.79,897.91 4664.47,896.63 4665.23,896.16 4666.06,896.48 4666.98,897.59"/>
    </edge>
    <edge id=":2189515238_2" function="internal">
        <lane id=":2189515238_2_0" index="0" disallow="pedestrian bicycle tram rail_urban rail rail_electric rail_fast ship" speed="6.51" length="9.10" shape="4672.01,891.42 4669.60,892.00 4667.96,893.22 4667.08,895.08 4666.98,897.59"/>
    </edge>
    <edge id=":2189515238_3" function="internal">
        <lane id=":2189515238_3_0" index="0" disallow="pedestrian bicycle tram rail_urban rail rail_electric rail_fast ship" speed="27.78" length="14.52" shape="4672.01,891.42 4657.63,893.01"/>
        <lane id=":2189515238_3_1" index="1" disallow="pedestrian bicycle tram rail_urban rail rail_electric rail_fast ship" speed="27.78" length="14.52" shape="4671.72,888.23 4657.22,889.84"/>
    </edge>
    <edge id=":2189515249_0" function="internal">
        <lane id=":2189515249_0_0" index="0" disallow="tram rail_urban rail rail_electric rail_fast ship" speed="13.89" length="13.43" shape="5334.94,937.74 5331.97,935.87 5329.17,934.31 5326.27,932.92 5323.04,931.55"/>
    </edge>
    <edge id=":2189515249_1" function="internal">
        <lane id=":2189515249_1_0" index="0" disallow="tram rail_urban rail rail_electric rail_fast ship" speed="8.60" length="3.60" shape="5334.94,937.74 5332.26,935.34"/>
    </edge>
    <edge id=":2189515249_2" function="internal">
        <lane id=":2189515249_2_0" index="0" disallow="tram rail_urban rail rail_electric rail_fast ship" speed="3.65" length="1.44" shape="5334.94,937.74 5334.38,936.41"/>
    </edge>
    <edge id=":2189515249_9" function="internal">
        <lane id=":2189515249_9_0" index="0" disallow="tram rail_urban rail rail_electric rail_fast ship" speed="8.60" length="10.35" shape="5332.26,935.34 5330.79,932.49 5330.55,929.20 5331.52,925.47"/>
    </edge>
    <edge id=":2189515249_10" function="internal">
        <lane id=":2189515249_10_0" index="0" disallow="tram rail_urban rail rail_electric rail_fast ship" speed="3.65" length="3.23" shape="5334.38,936.41 5334.49,935.53 5335.27,935.08 5336.71,935.08"/>
    </edge>
    <edge id=":2189515249_3" function="internal">
        <lane id=":2189515249_3_0" index="0" disallow="tram rail_urban rail rail_electric rail_fast ship" speed="7.21" length="9.53" shape="5334.49,926.66 5333.80,929.24 5333.95,931.51 5334.91,933.45 5336.71,935.08"/>
    </edge>
    <edge id=":2189515249_4" function="internal">
        <lane id=":2189515249_4_0" index="0" disallow="tram rail_urban rail rail_electric rail_fast ship" speed="8.00" length="14.20" shape="5334.49,926.66 5332.55,930.03 5329.99,931.97 5326.82,932.48 5323.04,931.55"/>
    </edge>
    <edge id=":2189515249_5" function="internal">
        <lane id=":2189515249_5_0" index="0" disallow="tram rail_urban rail rail_electric rail_fast ship" speed="3.65" length="4.67" shape="5334.49,926.66 5333.30,927.48 5332.41,927.55 5331.81,926.88 5331.52,925.47"/>
    </edge>
    <edge id=":2189515249_6" function="internal">
        <lane id=":2189515249_6_0" index="0" disallow="tram rail_urban rail rail_electric rail_fast ship" speed="6.50" length="9.03" shape="5324.24,928.58 5326.64,929.17 5328.66,928.85 5330.28,927.62 5331.52,925.47"/>
    </edge>
    <edge id=":2189515249_7" function="internal">
        <lane id=":2189515249_7_0" index="0" disallow="tram rail_urban rail rail_electric rail_fast ship" speed="13.89" length="14.09" shape="5324.24,928.58 5327.56,930.00 5330.65,931.49 5333.66,933.16 5336.71,935.08"/>
    </edge>
    <edge id=":2189515249_8" function="internal">
        <lane id=":2189515249_8_0" index="0" disallow="tram rail_urban rail rail_electric rail_fast ship" speed="3.65" length="1.44" shape="5324.24,928.58 5325.05,929.77"/>
    </edge>
    <edge id=":2189515249_11" function="internal">
        <lane id=":2189515249_11_0" index="0" disallow="tram rail_urban rail rail_electric rail_fast ship" speed="3.65" length="3.23" shape="5325.05,929.77 5325.12,930.67 5324.46,931.26 5323.04,931.55"/>
    </edge>
    <edge id=":2189515255_0" function="internal">
        <lane id=":2189515255_0_0" index="0" disallow="pedestrian bicycle tram rail_urban rail rail_electric rail_fast ship" speed="6.88" length="8.56" shape="4434.51,925.11 4433.49,922.94 4432.09,921.46 4430.31,920.67 4428.14,920.57"/>
    </edge>
    <edge id=":2189515255_1" function="internal">
        <lane id=":2189515255_1_0" index="0" disallow="pedestrian bicycle tram rail_urban rail rail_electric rail_fast ship" speed="22.22" length="11.88" shape="4434.51,925.11 4433.51,922.00 4432.86,919.40 4432.54,916.75 4432.52,913.49"/>
    </edge>
    <edge id=":2189515255_2" function="internal">
        <lane id=":2189515255_2_0" index="0" disallow="pedestrian bicycle tram rail_urban rail rail_electric rail_fast ship" speed="27.78" length="7.90" shape="4435.95,919.88 4428.14,920.57"/>
        <lane id=":2189515255_2_1" index="1" disallow="pedestrian bicycle tram rail_urban rail rail_electric rail_fast ship" speed="27.78" length="7.90" shape="4435.74,916.68 4427.80,917.39"/>
    </edge>
    <edge id=":2189515255_4" function="internal">
        <lane id=":2189515255_4_0" index="0" disallow="pedestrian bicycle tram rail_urban rail rail_electric rail_fast ship" speed="5.00" length="5.30" shape="4435.74,916.68 4434.29,916.57 4433.26,916.00 4432.68,914.97 4432.52,913.49"/>
    </edge>
    <edge id=":2189515260_0" function="internal">
        <lane id=":2189515260_0_0" index="0" disallow="tram rail_urban rail rail_electric rail_fast ship" speed="7.00" length="9.88" shape="5176.38,927.12 5173.74,927.70 5171.85,928.97 5170.71,930.91 5170.31,933.53"/>
    </edge>
    <edge id=":2189515260_1" function="internal">
        <lane id=":2189515260_1_0" index="0" disallow="tram rail_urban rail rail_electric rail_fast ship" speed="13.89" length="14.93" shape="5176.38,927.12 5161.47,928.08"/>
    </edge>
    <edge id=":2189515260_2" function="internal">
        <lane id=":2189515260_2_0" index="0" disallow="tram rail_urban rail rail_electric rail_fast ship" speed="7.85" length="14.54" shape="5176.38,927.12 5172.35,926.87 5169.48,925.37 5167.77,922.62 5167.23,918.63"/>
    </edge>
    <edge id=":2189515260_3" function="internal">
        <lane id=":2189515260_3_0" index="0" disallow="tram rail_urban rail rail_electric rail_fast ship" speed="3.65" length="4.67" shape="5176.38,927.12 5175.12,926.42 5174.65,925.65 5174.99,924.82 5176.12,923.93"/>
    </edge>
    <edge id=":2189515260_4" function="internal">