<?xml version="1.0" encoding="UTF-8"?>

<!-- generated on 2024-10-20 15:32:12.985841 by randomTrips.py v1_19_0+0000-baa66a0f364
<configuration>
    <net-file value="C:\Users\MONSTER\Documents\GitHub\SUMOScripts\SUMO-1\my_data2\osm\Harmancik.net.xml"/>
    <output-trip-file value="C:\Users\MONSTER\Documents\GitHub\SUMOScripts\SUMO-1\my_data2\osm\Harmancik_trips.xml"/>
    <vehicle-class value="passenger"/>
    <random value="True"/>
    <validate value="True"/>
    <period value="36.0"/>
    <random-depart value="True"/>
</configuration>
-->

<!-- generated on 2024-10-20 15:32:12 by Eclipse SUMO duarouter Version 1.19.0
<configuration xmlns:xsi="http://www.w3.org/2001/XMLSchema-instance" xsi:noNamespaceSchemaLocation="http://sumo.dlr.de/xsd/duarouterConfiguration.xsd">

    <input>
        <net-file value="C:\Users\MONSTER\Documents\GitHub\SUMOScripts\SUMO-1\my_data2\osm\Harmancik.net.xml"/>
        <route-files value="C:\Users\MONSTER\Documents\GitHub\SUMOScripts\SUMO-1\my_data2\osm\Harmancik_trips.xml"/>
    </input>

    <output>
        <output-file value="C:\Users\MONSTER\Documents\GitHub\SUMOScripts\SUMO-1\my_data2\osm\Harmancik_trips.xml.tmp"/>
        <alternatives-output value="NUL"/>
        <write-trips value="true"/>
    </output>

    <time>
        <begin value="0.0"/>
        <end value="3600.0"/>
    </time>

    <report>
        <no-warnings value="true"/>
        <ignore-errors value="true"/>
        <no-step-log value="true"/>
    </report>

</configuration>
-->

<routes xmlns:xsi="http://www.w3.org/2001/XMLSchema-instance" xsi:noNamespaceSchemaLocation="http://sumo.dlr.de/xsd/routes_file.xsd">
    <vType id="passenger" vClass="passenger"/>
    <trip id="0" type="passenger" depart="55.00" from="208679332#1" to="515254891#6"/>
    <trip id="1" type="passenger" depart="110.00" from="-208679334#4" to="208679460#0"/>
    <trip id="2" type="passenger" depart="114.00" from="-208679413#1" to="208679364"/>
    <trip id="3" type="passenger" depart="139.00" from="-208679449#0" to="-208679452#1"/>
    <trip id="4" type="passenger" depart="214.00" from="-208679445#3" to="208679449#2"/>
    <trip id="5" type="passenger" depart="240.00" from="208679449#2" to="-208679439#0"/>
    <trip id="6" type="passenger" depart="324.00" from="-208679345#3" to="-208679338#1"/>
    <trip id="7" type="passenger" depart="343.00" from="56238030#0" to="-208679339#2"/>
    <trip id="8" type="passenger" depart="386.00" from="208679328#4" to="-208679460#3"/>
    <trip id="9" type="passenger" depart="391.00" from="-208679389#1" to="-208679452#0"/>
    <trip id="10" type="passenger" depart="403.00" from="-208679440#0" to="-629877097"/>
    <trip id="11" type="passenger" depart="417.00" from="-208679380#11" to="208679414#1"/>
    <trip id="12" type="passenger" depart="434.00" from="-208679328#5" to="-208679431#2"/>
    <trip id="13" type="passenger" depart="470.00" from="-208679332#0" to="-208679450#2"/>
    <trip id="14" type="passenger" depart="527.00" from="-208679332#0" to="-208679345#3"/>
    <trip id="15" type="passenger" depart="538.00" from="-208679339#1" to="-208679450#2"/>
    <trip id="16" type="passenger" depart="576.00" from="208679338#2" to="208679440#0"/>
    <trip id="17" type="passenger" depart="584.00" from="208679345#1" to="208679338#4"/>
    <trip id="18" type="passenger" depart="591.00" from="1313024940" to="208679332#4"/>
    <trip id="19" type="passenger" depart="594.00" from="-208679328#4" to="-208679332#2"/>
    <trip id="20" type="passenger" depart="621.00" from="-208679431#3" to="208679393#0"/>
    <trip id="21" type="passenger" depart="663.00" from="208679405#2" to="-208679331#2"/>
    <trip id="22" type="passenger" depart="729.00" from="208679460#2" to="-208679345#3"/>
    <trip id="23" type="passenger" depart="730.00" from="208679345#3" to="56238030#2"/>
    <trip id="24" type="passenger" depart="750.00" from="56238030#6" to="208679462#0"/>
    <trip id="25" type="passenger" depart="827.00" from="56238030#5" to="-208679406#0"/>
    <trip id="26" type="passenger" depart="1009.00" from="-208679406#1" to="-208679338#3"/>
    <trip id="27" type="passenger" depart="1070.00" from="208679450#3" to="208679380#6"/>
    <trip id="28" type="passenger" depart="1133.00" from="208679334#4" to="-208679353"/>
    <trip id="29" type="passenger" depart="1135.00" from="208679332#1" to="-208679332#2"/>
    <trip id="30" type="passenger" depart="1155.00" from="208679446#0" to="208679334#5"/>
    <trip id="31" type="passenger" depart="1163.00" from="56238067#0" to="208679331#2"/>
    <trip id="32" type="passenger" depart="1220.00" from="208679338#4" to="-208679380#4"/>
    <trip id="33" type="passenger" depart="1281.00" from="208679328#1" to="208679332#5"/>
    <trip id="34" type="passenger" depart="1399.00" from="-208679431#0" to="208679380#4"/>
    <trip id="35" type="passenger" depart="1406.00" from="208679334#2" to="515254891#6"/>
    <trip id="36" type="passenger" depart="1435.00" from="208679462#0" to="-208679460#1"/>
    <trip id="37" type="passenger" depart="1440.00" from="-208679338#0" to="-208679334#0"/>
    <trip id="38" type="passenger" depart="1450.00" from="-208679331#2" to="208679338#2"/>
    <trip id="39" type="passenger" depart="1561.00" from="-208679460#3" to="-208679380#0"/>
    <trip id="40" type="passenger" depart="1642.00" from="208679384#0" to="-208679345#3"/>
    <trip id="41" type="passenger" depart="1710.00" from="-208679339#2" to="208679338#1"/>
    <trip id="42" type="passenger" depart="1714.00" from="-208679452#0" to="-208679339#1"/>
    <trip id="43" type="passenger" depart="1715.00" from="-208679328#3" to="-208679345#3"/>
    <trip id="44" type="passenger" depart="1761.00" from="208679442#0" to="-208679334#4"/>
    <trip id="45" type="passenger" depart="1781.00" from="-208679421#0" to="-208679450#4"/>
    <trip id="46" type="passenger" depart="1793.00" from="-208679385#1" to="208679332#3"/>
    <trip id="47" type="passenger" depart="1809.00" from="208679380#11" to="208679339#3"/>
    <trip id="48" type="passenger" depart="1819.00" from="208679461#0" to="-208679334#3"/>
    <trip id="49" type="passenger" depart="1865.00" from="-208679460#1" to="-208679431#1"/>
    <trip id="50" type="passenger" depart="1883.00" from="208679385#1" to="208679332#0"/>
    <trip id="51" type="passenger" depart="1896.00" from="-208679442#1" to="208679323#2"/>
    <trip id="52" type="passenger" depart="1947.00" from="-208679325#1" to="208679445#2"/>
    <trip id="53" type="passenger" depart="1957.00" from="-208679460#3" to="208679442#0"/>
    <trip id="54" type="passenger" depart="1996.00" from="-208679450#0" to="-208679325#0"/>
    <trip id="55" type="passenger" depart="2011.00" from="208679345#0" to="-208679380#11"/>
    <trip id="56" type="passenger" depart="2022.00" from="-208679380#9" to="-208679345#0"/>
    <trip id="57" type="passenger" depart="2046.00" from="208679338#3" to="208679407#0"/>
    <trip id="58" type="passenger" depart="2073.00" from="371187894#1" to="208679445#2"/>
    <trip id="59" type="passenger" depart="2084.00" from="-208679431#1" to="-208679439#1"/>
    <trip id="60" type="passenger" depart="2136.00" from="208679445#3" to="208679450#0"/>
    <trip id="61" type="passenger" depart="2148.00" from="-208679380#4" to="-208679431#1"/>
    <trip id="62" type="passenger" depart="2159.00" from="208679449#2" to="208679334#1"/>
    <trip id="63" type="passenger" depart="2221.00" from="-208679345#4" to="208679339#3"/>
    <trip id="64" type="passenger" depart="2249.00" from="208679390" to="-208679331#2"/>
    <trip id="65" type="passenger" depart="2253.00" from="-208679446#3" to="-208679380#12"/>
    <trip id="66" type="passenger" depart="2277.00" from="208679323#0" to="208679338#2"/>
    <trip id="67" type="passenger" depart="2308.00" from="-208679332#1" to="-208679380#0"/>
    <trip id="68" type="passenger" depart="2425.00" from="-208679385#1" to="-208679331#0"/>
    <trip id="69" type="passenger" depart="2439.00" from="208679438#2" to="208679380#9"/>
    <trip id="70" type="passenger" depart="2520.00" from="208679430#2" to="-208679338#3"/>
    <trip id="71" type="passenger" depart="2538.00" from="56238030#3" to="-208679423#0"/>
    <trip id="72" type="passenger" depart="2547.00" from="-208679413#2" to="-208679430#1"/>
    <trip id="73" type="passenger" depart="2554.00" from="208679389#1" to="208679380#1"/>
    <trip id="74" type="passenger" depart="2566.00" from="-208679446#1" to="-208679345#1"/>
    <trip id="75" type="passenger" depart="2665.00" from="-208679380#4" to="208679323#2"/>
    <trip id="76" type="passenger" depart="2667.00" from="629877096#0" to="371187427#1"/>
    <trip id="77" type="passenger" depart="2702.00" from="371187427#1" to="-208679460#0"/>
    <trip id="78" type="passenger" depart="2846.00" from="208679400" to="-208679328#5"/>
    <trip id="79" type="passenger" depart="2857.00" from="208679414#0" to="56238030#7"/>
    <trip id="80" type="passenger" depart="2932.00" from="-208679430#1" to="208679445#1"/>
    <trip id="81" type="passenger" depart="2944.00" from="208679332#1" to="208679334#2"/>
    <trip id="82" type="passenger" depart="3034.00" from="208679332#8" to="-208679338#0"/>
    <trip id="83" type="passenger" depart="3060.00" from="-208679345#6" to="-208679400"/>
    <trip id="84" type="passenger" depart="3073.00" from="208679345#2" to="-208679445#1"/>
    <trip id="85" type="passenger" depart="3074.00" from="-208679440#1" to="629877096#1"/>
    <trip id="86" type="passenger" depart="3135.00" from="-208679461#0" to="208679405#2"/>
    <trip id="87" type="passenger" depart="3164.00" from="-208679449#2" to="-208679338#2"/>
    <trip id="88" type="passenger" depart="3178.00" from="-208679440#0" to="-208679378#1"/>
    <trip id="89" type="passenger" depart="3180.00" from="208679332#6" to="515254891#1"/>
    <trip id="90" type="passenger" depart="3210.00" from="208679440#2" to="-208679339#2"/>
    <trip id="91" type="passenger" depart="3226.00" from="208679338#1" to="-208679431#2"/>
    <trip id="92" type="passenger" depart="3370.00" from="208679332#4" to="-208679430#1"/>
    <trip id="93" type="passenger" depart="3380.00" from="-208679406#0" to="208679445#0"/>
    <trip id="94" type="passenger" depart="3421.00" from="-208679439#0" to="-208679339#2"/>
    <trip id="95" type="passenger" depart="3445.00" from="208679421#2" to="208679380#1"/>
    <trip id="96" type="passenger" depart="3473.00" from="-208679339#0" to="-208679345#3"/>
    <trip id="97" type="passenger" depart="3476.00" from="208679323#1" to="-208679380#4"/>
    <trip id="98" type="passenger" depart="3517.00" from="208679405#0" to="-208679421#2"/>
    <trip id="99" type="passenger" depart="3581.00" from="-208679431#1" to="-208679384#1"/>
</routes>
