<?xml version="1.0" encoding="UTF-8"?>

<!-- generated on 2024-10-20 15:31:43.148710 by randomTrips.py v1_19_0+0000-baa66a0f364
<configuration>
    <net-file value="C:\Users\MONSTER\Documents\GitHub\SUMOScripts\SUMO-1\my_data2\osm\Mudanya.net.xml"/>
    <output-trip-file value="C:\Users\MONSTER\Documents\GitHub\SUMOScripts\SUMO-1\my_data2\osm\Mudanya_trips.xml"/>
    <vehicle-class value="passenger"/>
    <random value="True"/>
    <validate value="True"/>
    <period value="36.0"/>
    <random-depart value="True"/>
</configuration>
-->

<!-- generated on 2024-10-20 15:31:43 by Eclipse SUMO duarouter Version 1.19.0
<configuration xmlns:xsi="http://www.w3.org/2001/XMLSchema-instance" xsi:noNamespaceSchemaLocation="http://sumo.dlr.de/xsd/duarouterConfiguration.xsd">

    <input>
        <net-file value="C:\Users\MONSTER\Documents\GitHub\SUMOScripts\SUMO-1\my_data2\osm\Mudanya.net.xml"/>
        <route-files value="C:\Users\MONSTER\Documents\GitHub\SUMOScripts\SUMO-1\my_data2\osm\Mudanya_trips.xml"/>
    </input>

    <output>
        <output-file value="C:\Users\MONSTER\Documents\GitHub\SUMOScripts\SUMO-1\my_data2\osm\Mudanya_trips.xml.tmp"/>
        <alternatives-output value="NUL"/>
        <write-trips value="true"/>
    </output>

    <time>
        <begin value="0.0"/>
        <end value="3600.0"/>
    </time>

    <report>
        <no-warnings value="true"/>
        <ignore-errors value="true"/>
        <no-step-log value="true"/>
    </report>

</configuration>
-->

<routes xmlns:xsi="http://www.w3.org/2001/XMLSchema-instance" xsi:noNamespaceSchemaLocation="http://sumo.dlr.de/xsd/routes_file.xsd">
    <vType id="passenger" vClass="passenger"/>
    <trip id="0" type="passenger" depart="5.00" from="-697927027" to="503796409#5"/>
    <trip id="1" type="passenger" depart="6.00" from="-352291535#4" to="-46736722#6"/>
    <trip id="2" type="passenger" depart="27.00" from="-1038707851#1" to="-1040182330#1"/>
    <trip id="3" type="passenger" depart="27.00" from="-927307535#0" to="-1038264644"/>
    <trip id="4" type="passenger" depart="41.00" from="-503796412#0" to="-1073087871#3"/>
    <trip id="5" type="passenger" depart="53.00" from="-503796413#1" to="-679676936#0"/>
    <trip id="6" type="passenger" depart="60.00" from="503796437#0" to="-46736708#0"/>
    <trip id="7" type="passenger" depart="87.00" from="503796440#8" to="-503796409#18"/>
    <trip id="8" type="passenger" depart="126.00" from="906673692#1" to="-1038747696#0"/>
    <trip id="9" type="passenger" depart="191.00" from="503796434#0" to="906673682#1"/>
    <trip id="10" type="passenger" depart="201.00" from="503796439#2" to="46736765#5"/>
    <trip id="11" type="passenger" depart="231.00" from="503796440#5" to="679676936#1"/>
    <trip id="12" type="passenger" depart="234.00" from="-503796409#7" to="-679681734#1"/>
    <trip id="13" type="passenger" depart="240.00" from="-1073087871#2" to="-26486597#4"/>
    <trip id="14" type="passenger" depart="255.00" from="906629973" to="1037944422#1"/>
    <trip id="15" type="passenger" depart="286.00" from="679681194" to="-1040182327"/>
    <trip id="16" type="passenger" depart="287.00" from="-906673682#0" to="-1038747691#1"/>
    <trip id="17" type="passenger" depart="298.00" from="-1038747704" to="1037985148#1"/>
    <trip id="18" type="passenger" depart="300.00" from="-503796438#13" to="-1038747696#1"/>
    <trip id="19" type="passenger" depart="337.00" from="-697927027" to="24828466#4"/>
    <trip id="20" type="passenger" depart="410.00" from="-503796410#1" to="503796430#4"/>
    <trip id="21" type="passenger" depart="446.00" from="-503796410#7" to="16362716#4"/>
    <trip id="22" type="passenger" depart="541.00" from="1038206587" to="679676967"/>
    <trip id="23" type="passenger" depart="591.00" from="-503796443#0" to="-679676944"/>
    <trip id="24" type="passenger" depart="597.00" from="-24827628#0" to="-1040182327"/>
    <trip id="25" type="passenger" depart="705.00" from="1073087871#0" to="-681343184#4"/>
    <trip id="26" type="passenger" depart="706.00" from="503796411#1" to="16362716#3"/>
    <trip id="27" type="passenger" depart="708.00" from="-906673684#1" to="503796410#11"/>
    <trip id="28" type="passenger" depart="789.00" from="1038255583#1" to="-1042251225#1"/>
    <trip id="29" type="passenger" depart="821.00" from="-679676938#3" to="1038255584#3"/>
    <trip id="30" type="passenger" depart="831.00" from="503796443#0" to="925498420"/>
    <trip id="31" type="passenger" depart="850.00" from="-503729370" to="503796430#0"/>
    <trip id="32" type="passenger" depart="889.00" from="-1038264644" to="679676956#0"/>
    <trip id="33" type="passenger" depart="912.00" from="-256944506#4" to="679676957"/>
    <trip id="34" type="passenger" depart="974.00" from="1042205527#0" to="1038747687#0"/>
    <trip id="35" type="passenger" depart="1040.00" from="906673692#3" to="-256944506#2"/>
    <trip id="36" type="passenger" depart="1080.00" from="-1038747692" to="1037944422#1"/>
    <trip id="37" type="passenger" depart="1135.00" from="46736723" to="-1038747693#0"/>
    <trip id="38" type="passenger" depart="1150.00" from="-1038747687#0" to="-503796409#18"/>
    <trip id="39" type="passenger" depart="1235.00" from="-46736767#1" to="681343180#1"/>
    <trip id="40" type="passenger" depart="1240.00" from="503796410#14" to="1073087871#0"/>
    <trip id="41" type="passenger" depart="1262.00" from="1073087871#3" to="-503796409#16"/>
    <trip id="42" type="passenger" depart="1290.00" from="1038747691#0" to="679676938#0"/>
    <trip id="43" type="passenger" depart="1292.00" from="-46736722#0" to="-639710192#0"/>
    <trip id="44" type="passenger" depart="1310.00" from="-1042205522#2" to="-46736779#2"/>
    <trip id="45" type="passenger" depart="1322.00" from="-906857564#2" to="-1040182328#1"/>
    <trip id="46" type="passenger" depart="1351.00" from="-906673679#0" to="503796410#14"/>
    <trip id="47" type="passenger" depart="1398.00" from="-1042532540#2" to="-681343181#1"/>
    <trip id="48" type="passenger" depart="1411.00" from="46736730#2" to="1042205527#1"/>
    <trip id="49" type="passenger" depart="1555.00" from="-679681195" to="697927019"/>
    <trip id="50" type="passenger" depart="1567.00" from="679681735" to="1042205522#2"/>
    <trip id="51" type="passenger" depart="1587.00" from="-906857564#0" to="-503796443#3"/>
    <trip id="52" type="passenger" depart="1598.00" from="1038255583#1" to="-503796435#0"/>
    <trip id="53" type="passenger" depart="1623.00" from="-697927031#1" to="1037985149#3"/>
    <trip id="54" type="passenger" depart="1650.00" from="-858796483" to="-256944499#1"/>
    <trip id="55" type="passenger" depart="1655.00" from="-1038747683" to="679681728"/>
    <trip id="56" type="passenger" depart="1842.00" from="46736767#1" to="-503796409#3"/>
    <trip id="57" type="passenger" depart="1849.00" from="1042251227" to="697927029#2"/>
    <trip id="58" type="passenger" depart="1868.00" from="-503729366#1" to="24828466#5"/>
    <trip id="59" type="passenger" depart="1901.00" from="352291535#1" to="-679681736#1"/>
    <trip id="60" type="passenger" depart="1905.00" from="-681343177#2" to="503796441#0"/>
    <trip id="61" type="passenger" depart="1908.00" from="352291536#4" to="503796443#3"/>
    <trip id="62" type="passenger" depart="1946.00" from="-681343181#2" to="1042627255"/>
    <trip id="63" type="passenger" depart="1997.00" from="1037944422#0" to="-679676956#1"/>
    <trip id="64" type="passenger" depart="2038.00" from="-1038747687#2" to="-906673684#0"/>
    <trip id="65" type="passenger" depart="2088.00" from="-352291536#5" to="26486597#15"/>
    <trip id="66" type="passenger" depart="2098.00" from="-46736812#4" to="-26486597#0"/>
    <trip id="67" type="passenger" depart="2146.00" from="-1042251230#0" to="1040176577#0"/>
    <trip id="68" type="passenger" depart="2181.00" from="1037944417" to="679676938#3"/>
    <trip id="69" type="passenger" depart="2190.00" from="-679681729" to="256944506#2"/>
    <trip id="70" type="passenger" depart="2269.00" from="681343181#0" to="-1038747691#0"/>
    <trip id="71" type="passenger" depart="2276.00" from="925502482" to="-46736812#2"/>
    <trip id="72" type="passenger" depart="2280.00" from="503796407#4" to="906673689"/>
    <trip id="73" type="passenger" depart="2395.00" from="1040182328#1" to="-681343175#0"/>
    <trip id="74" type="passenger" depart="2471.00" from="-1042532543" to="-639710192#0"/>
    <trip id="75" type="passenger" depart="2549.00" from="352291536#1" to="-639710192#0"/>
    <trip id="76" type="passenger" depart="2641.00" from="679676954#2" to="-503796409#4"/>
    <trip id="77" type="passenger" depart="2672.00" from="-503796438#8" to="-679676938#0"/>
    <trip id="78" type="passenger" depart="2702.00" from="-256944499#0" to="-256944498"/>
    <trip id="79" type="passenger" depart="2789.00" from="-503796438#8" to="46736784#4"/>
    <trip id="80" type="passenger" depart="2801.00" from="680849853#1" to="503796409#0"/>
    <trip id="81" type="passenger" depart="2820.00" from="352291535#0" to="679676938#2"/>
    <trip id="82" type="passenger" depart="2870.00" from="-1042251229#0" to="1042251232#0"/>
    <trip id="83" type="passenger" depart="2901.00" from="-1042205527#0" to="503796410#11"/>
    <trip id="84" type="passenger" depart="2950.00" from="1037944426#0" to="1038747701"/>
    <trip id="85" type="passenger" depart="2957.00" from="-503796409#23" to="-639598885#0"/>
    <trip id="86" type="passenger" depart="3003.00" from="639710191#0" to="-46736779#2"/>
    <trip id="87" type="passenger" depart="3059.00" from="-697927032" to="-679676970#1"/>
    <trip id="88" type="passenger" depart="3101.00" from="46736767#2" to="1038264645#0"/>
    <trip id="89" type="passenger" depart="3130.00" from="680849851#0" to="503796407#4"/>
    <trip id="90" type="passenger" depart="3224.00" from="-1038747687#3" to="-681343180#0"/>
    <trip id="91" type="passenger" depart="3300.00" from="-697927030#0" to="-1038707855"/>
    <trip id="92" type="passenger" depart="3369.00" from="679676970#0" to="-679676958#1"/>
    <trip id="93" type="passenger" depart="3400.00" from="-906673679#0" to="-46736710#0"/>
    <trip id="94" type="passenger" depart="3472.00" from="-679676949" to="503796438#10"/>
    <trip id="95" type="passenger" depart="3525.00" from="-46736767#3" to="-46736779#0"/>
    <trip id="96" type="passenger" depart="3546.00" from="503796439#7" to="-503796412#2"/>
    <trip id="97" type="passenger" depart="3574.00" from="639598883#1" to="-503796409#6"/>
    <trip id="98" type="passenger" depart="3579.00" from="906673689" to="927307536#2"/>
    <trip id="99" type="passenger" depart="3583.00" from="697927018#2" to="-681343181#1"/>
</routes>
