<?xml version="1.0" encoding="UTF-8"?>

<!-- generated on 2024-10-20 15:31:41 by Eclipse SUMO netconvert Version 1.19.0
<configuration xmlns:xsi="http://www.w3.org/2001/XMLSchema-instance" xsi:noNamespaceSchemaLocation="http://sumo.dlr.de/xsd/netconvertConfiguration.xsd">

    <input>
        <osm-files value="C:\Users\MONSTER\Documents\GitHub\SUMOScripts\SUMO-1\my_data2\osm\Mudanya.osm.xml"/>
    </input>

    <output>
        <output-file value="C:\Users\MONSTER\Documents\GitHub\SUMOScripts\SUMO-1\my_data2\osm\Mudanya.net.xml"/>
    </output>

    <projection>
        <proj.utm value="true"/>
    </projection>

</configuration>
-->

<net version="1.16" junctionCornerDetail="5" limitTurnSpeed="5.50" xmlns:xsi="http://www.w3.org/2001/XMLSchema-instance" xsi:noNamespaceSchemaLocation="http://sumo.dlr.de/xsd/net_file.xsd">

    <location netOffset="-657555.19,-4465322.76" convBoundary="0.00,0.00,6562.27,6734.85" origBoundary="28.856065,40.322316,28.976271,41.017132" projParameter="+proj=utm +zone=35 +ellps=WGS84 +datum=WGS84 +units=m +no_defs"/>

    <type id="highway.footway" priority="1" numLanes="1" speed="2.78" allow="pedestrian" oneway="1" width="2.00"/>
    <type id="highway.living_street" priority="2" numLanes="1" speed="2.78" disallow="tram rail_urban rail rail_electric rail_fast ship" oneway="0"/>
    <type id="highway.pedestrian" priority="1" numLanes="1" speed="2.78" allow="pedestrian" oneway="1" width="2.00"/>
    <type id="highway.residential" priority="3" numLanes="1" speed="13.89" disallow="tram rail_urban rail rail_electric rail_fast ship" oneway="0"/>
    <type id="highway.secondary" priority="11" numLanes="1" speed="27.78" disallow="tram rail_urban rail rail_electric rail_fast ship" oneway="0"/>
    <type id="highway.service" priority="1" numLanes="1" speed="5.56" allow="pedestrian delivery bicycle" oneway="0"/>
    <type id="highway.steps" priority="1" numLanes="1" speed="1.39" allow="pedestrian" oneway="1" width="2.00"/>
    <type id="highway.tertiary" priority="10" numLanes="1" speed="22.22" disallow="tram rail_urban rail rail_electric rail_fast ship" oneway="0"/>
    <type id="highway.track" priority="1" numLanes="1" speed="5.56" allow="pedestrian motorcycle moped bicycle" oneway="0"/>
    <type id="highway.trunk" priority="13" numLanes="2" speed="27.78" disallow="pedestrian bicycle tram rail_urban rail rail_electric rail_fast ship" oneway="0"/>
    <type id="highway.trunk_link" priority="8" numLanes="1" speed="22.22" disallow="pedestrian bicycle tram rail_urban rail rail_electric rail_fast ship" oneway="0"/>

    <edge id=":1468350908_0" function="internal">
        <lane id=":1468350908_0_0" index="0" allow="pedestrian delivery bicycle" speed="3.65" length="4.67" shape="2922.09,5481.69 2921.92,5480.26 2922.27,5479.43 2923.14,5479.22 2924.53,5479.62"/>
    </edge>
    <edge id=":1468350909_0" function="internal">
        <lane id=":1468350909_0_0" index="0" disallow="tram rail_urban rail rail_electric rail_fast ship" speed="22.22" length="9.65" shape="2958.83,5515.40 2951.25,5521.37"/>
    </edge>
    <edge id=":1468350909_1" function="internal">
        <lane id=":1468350909_1_0" index="0" allow="pedestrian delivery bicycle" speed="6.93" length="3.37" shape="2958.83,5515.40 2956.47,5516.84 2955.88,5516.92"/>
    </edge>
    <edge id=":1468350909_7" function="internal">
        <lane id=":1468350909_7_0" index="0" allow="pedestrian delivery bicycle" speed="6.93" length="6.93" shape="2955.88,5516.92 2954.18,5517.16 2951.97,5516.36 2949.83,5514.45"/>
    </edge>
    <edge id=":1468350909_2" function="internal">
        <lane id=":1468350909_2_0" index="0" allow="pedestrian delivery bicycle" speed="5.13" length="5.18" shape="2952.27,5512.38 2953.36,5513.36 2954.47,5513.78 2955.62,5513.64 2956.79,5512.94"/>
    </edge>
    <edge id=":1468350909_3" function="internal">
        <lane id=":1468350909_3_0" index="0" allow="pedestrian delivery bicycle" speed="6.81" length="10.46" shape="2952.27,5512.38 2953.81,5514.83 2954.15,5517.14 2953.30,5519.32 2951.25,5521.37"/>
    </edge>
    <edge id=":1468350909_4" function="internal">
        <lane id=":1468350909_4_0" index="0" allow="pedestrian delivery bicycle" speed="3.65" length="4.67" shape="2952.27,5512.38 2952.44,5513.81 2952.09,5514.63 2951.22,5514.85 2949.83,5514.45"/>
    </edge>
    <edge id=":1468350909_5" function="internal">
        <lane id=":1468350909_5_0" index="0" allow="pedestrian delivery bicycle" speed="4.98" length="5.07" shape="2949.34,5518.81 2950.33,5517.81 2950.74,5516.76 2950.58,5515.63 2949.83,5514.45"/>
    </edge>
    <edge id=":1468350909_6" function="internal">
        <lane id=":1468350909_6_0" index="0" disallow="tram rail_urban rail rail_electric rail_fast ship" speed="22.22" length="9.48" shape="2949.34,5518.81 2956.79,5512.94"/>
    </edge>
    <edge id=":1468350915_0" function="internal">
        <lane id=":1468350915_0_0" index="0" disallow="bicycle tram rail_urban rail rail_electric rail_fast ship" speed="27.78" length="5.12" shape="2914.95,5473.32 2911.61,5477.13"/>
        <lane id=":1468350915_0_1" index="1" disallow="bicycle tram rail_urban rail rail_electric rail_fast ship" speed="27.78" length="5.12" shape="2912.57,5471.17 2909.17,5475.07"/>
    </edge>
    <edge id=":1817571098_0" function="internal">
        <lane id=":1817571098_0_0" index="0" disallow="tram rail_urban rail rail_electric rail_fast ship" speed="22.22" length="13.72" shape="3158.04,5366.24 3147.13,5374.57"/>
    </edge>
    <edge id=":1817571098_1" function="internal">
        <lane id=":1817571098_1_0" index="0" disallow="tram rail_urban rail rail_electric rail_fast ship" speed="8.05" length="3.75" shape="3158.04,5366.24 3154.69,5367.94"/>
    </edge>
    <edge id=":1817571098_2" function="internal">
        <lane id=":1817571098_2_0" index="0" disallow="tram rail_urban rail rail_electric rail_fast ship" speed="3.65" length="1.44" shape="3158.04,5366.24 3156.60,5366.27"/>
    </edge>
    <edge id=":1817571098_9" function="internal">
        <lane id=":1817571098_9_0" index="0" disallow="tram rail_urban rail rail_electric rail_fast ship" speed="8.05" length="10.07" shape="3154.69,5367.94 3151.56,5368.19 3148.64,5367.00 3145.93,5364.37"/>
    </edge>
    <edge id=":1817571098_10" function="internal">
        <lane id=":1817571098_10_0" index="0" disallow="tram rail_urban rail rail_electric rail_fast ship" speed="3.65" length="3.23" shape="3156.60,5366.27 3155.81,5365.85 3155.68,5364.96 3156.21,5363.62"/>
    </edge>
    <edge id=":1817571098_3" function="internal">
        <lane id=":1817571098_3_0" index="0" disallow="tram rail_urban rail rail_electric rail_fast ship" speed="6.56" length="8.84" shape="3148.46,5362.41 3150.19,5364.10 3152.06,5364.86 3154.07,5364.70 3156.21,5363.62"/>
    </edge>
    <edge id=":1817571098_4" function="internal">
        <lane id=":1817571098_4_0" index="0" disallow="tram rail_urban rail rail_electric rail_fast ship" speed="8.01" length="13.84" shape="3148.46,5362.41 3150.33,5365.69 3150.73,5368.81 3149.67,5371.77 3147.13,5374.57"/>
    </edge>
    <edge id=":1817571098_5" function="internal">
        <lane id=":1817571098_5_0" index="0" disallow="tram rail_urban rail rail_electric rail_fast ship" speed="3.65" length="4.67" shape="3148.46,5362.41 3148.57,5363.85 3148.18,5364.65 3147.30,5364.83 3145.93,5364.37"/>
    </edge>
    <edge id=":1817571098_6" function="internal">
        <lane id=":1817571098_6_0" index="0" disallow="tram rail_urban rail rail_electric rail_fast ship" speed="6.51" length="8.81" shape="3145.08,5372.10 3146.70,5370.32 3147.38,5368.44 3147.12,5366.46 3145.93,5364.37"/>
    </edge>
    <edge id=":1817571098_7" function="internal">
        <lane id=":1817571098_7_0" index="0" disallow="tram rail_urban rail rail_electric rail_fast ship" speed="22.22" length="13.99" shape="3145.08,5372.10 3156.21,5363.62"/>
    </edge>
    <edge id=":1817571098_8" function="internal">
        <lane id=":1817571098_8_0" index="0" disallow="tram rail_urban rail rail_electric rail_fast ship" speed="3.65" length="1.44" shape="3145.08,5372.10 3146.52,5371.95"/>
    </edge>
    <edge id=":1817571098_11" function="internal">
        <lane id=":1817571098_11_0" index="0" disallow="tram rail_urban rail rail_electric rail_fast ship" speed="3.65" length="3.23" shape="3146.52,5371.95 3147.34,5372.31 3147.54,5373.18 3147.13,5374.57"/>
    </edge>
    <edge id=":1817571103_0" function="internal">
        <lane id=":1817571103_0_0" index="0" disallow="bicycle tram rail_urban rail rail_electric rail_fast ship" speed="6.35" length="9.04" shape="3091.29,5294.55 3089.48,5292.82 3087.58,5292.14 3085.60,5292.51 3083.53,5293.91"/>
    </edge>
    <edge id=":1817571103_1" function="internal">
        <lane id=":1817571103_1_0" index="0" disallow="tram rail_urban rail rail_electric rail_fast ship" speed="3.65" length="4.67" shape="3091.29,5294.55 3091.18,5293.11 3091.56,5292.30 3092.43,5292.12 3093.80,5292.57"/>
    </edge>
    <edge id=":1817571103_2" function="internal">
        <lane id=":1817571103_2_0" index="0" disallow="bicycle tram rail_urban rail rail_electric rail_fast ship" speed="6.83" length="9.43" shape="3094.12,5284.16 3092.60,5286.08 3092.04,5288.12 3092.44,5290.29 3093.80,5292.57"/>
    </edge>
    <edge id=":1817571103_3" function="internal">
        <lane id=":1817571103_3_0" index="0" disallow="bicycle tram rail_urban rail rail_electric rail_fast ship" speed="27.78" length="14.39" shape="3094.12,5284.16 3083.53,5293.91"/>
        <lane id=":1817571103_3_1" index="1" disallow="bicycle tram rail_urban rail rail_electric rail_fast ship" speed="27.78" length="14.39" shape="3091.95,5281.81 3081.37,5291.55"/>
    </edge>
    <edge id=":1817571126_0" function="internal">
        <lane id=":1817571126_0_0" index="0" disallow="tram rail_urban rail rail_electric rail_fast ship" speed="22.22" length="14.41" shape="3044.58,5452.82 3032.88,5461.23"/>
    </edge>
    <edge id=":1817571126_1" function="internal">
        <lane id=":1817571126_1_0" index="0" disallow="tram rail_urban rail rail_electric rail_fast ship" speed="8.23" length="3.96" shape="3044.58,5452.82 3041.21,5454.55 3041.04,5454.57"/>
    </edge>
    <edge id=":1817571126_2" function="internal">
        <lane id=":1817571126_2_0" index="0" disallow="tram rail_urban rail rail_electric rail_fast ship" speed="3.65" length="1.44" shape="3044.58,5452.82 3043.14,5452.87"/>
    </edge>
    <edge id=":1817571126_9" function="internal">
        <lane id=":1817571126_9_0" index="0" disallow="tram rail_urban rail rail_electric rail_fast ship" speed="8.23" length="10.34" shape="3041.04,5454.57 3037.99,5454.81 3034.92,5453.59 3032.01,5450.89"/>
    </edge>
    <edge id=":1817571126_10" function="internal">
        <lane id=":1817571126_10_0" index="0" disallow="tram rail_urban rail rail_electric rail_fast ship" speed="3.65" length="3.23" shape="3043.14,5452.87 3042.35,5452.45 3042.21,5451.57 3042.71,5450.22"/>
    </edge>
    <edge id=":1817571126_3" function="internal">
        <lane id=":1817571126_3_0" index="0" disallow="tram rail_urban rail rail_electric rail_fast ship" speed="6.78" length="9.39" shape="3034.47,5448.85 3036.40,5450.65 3038.42,5451.48 3040.53,5451.33 3042.71,5450.22"/>
    </edge>
    <edge id=":1817571126_4" function="internal">
        <lane id=":1817571126_4_0" index="0" disallow="tram rail_urban rail rail_electric rail_fast ship" speed="7.88" length="14.46" shape="3034.47,5448.85 3036.56,5452.27 3036.99,5455.47 3035.76,5458.46 3032.88,5461.23"/>
    </edge>
    <edge id=":1817571126_5" function="internal">
        <lane id=":1817571126_5_0" index="0" disallow="tram rail_urban rail rail_electric rail_fast ship" speed="3.65" length="4.67" shape="3034.47,5448.85 3034.62,5450.29 3034.26,5451.11 3033.39,5451.31 3032.01,5450.89"/>
    </edge>
    <edge id=":1817571126_6" function="internal">
        <lane id=":1817571126_6_0" index="0" disallow="tram rail_urban rail rail_electric rail_fast ship" speed="6.36" length="9.04" shape="3031.01,5458.63 3032.81,5456.90 3033.58,5455.03 3033.31,5453.03 3032.01,5450.89"/>
    </edge>
    <edge id=":1817571126_7" function="internal">
        <lane id=":1817571126_7_0" index="0" disallow="tram rail_urban rail rail_electric rail_fast ship" speed="22.22" length="14.41" shape="3031.01,5458.63 3042.71,5450.22"/>
    </edge>
    <edge id=":1817571126_8" function="internal">
        <lane id=":1817571126_8_0" index="0" disallow="tram rail_urban rail rail_electric rail_fast ship" speed="3.65" length="1.44" shape="3031.01,5458.63 3032.45,5458.58"/>
    </edge>
    <edge id=":1817571126_11" function="internal">
        <lane id=":1817571126_11_0" index="0" disallow="tram rail_urban rail rail_electric rail_fast ship" speed="3.65" length="3.23" shape="3032.45,5458.58 3033.24,5459.00 3033.38,5459.88 3032.88,5461.23"/>
    </edge>
    <edge id=":1817571130_0" function="internal">
        <lane id=":1817571130_0_0" index="0" disallow="tram rail_urban rail rail_electric rail_fast ship" speed="22.22" length="11.13" shape="3254.25,5242.08 3247.17,5233.49"/>
    </edge>
    <edge id=":1817571130_1" function="internal">
        <lane id=":1817571130_1_0" index="0" disallow="tram rail_urban rail rail_electric rail_fast ship" speed="3.65" length="1.44" shape="3254.25,5242.08 3254.08,5240.64"/>
    </edge>
    <edge id=":1817571130_6" function="internal">
        <lane id=":1817571130_6_0" index="0" disallow="tram rail_urban rail rail_electric rail_fast ship" speed="3.65" length="3.23" shape="3254.08,5240.64 3254.43,5239.82 3255.29,5239.61 3256.68,5240.00"/>
    </edge>
    <edge id=":1817571130_2" function="internal">
        <lane id=":1817571130_2_0" index="0" disallow="tram rail_urban rail rail_electric rail_fast ship" speed="22.22" length="11.02" shape="3249.67,5231.49 3256.68,5240.00"/>
    </edge>
    <edge id=":1817571130_3" function="internal">
        <lane id=":1817571130_3_0" index="0" disallow="tram rail_urban rail rail_electric rail_fast ship" speed="3.65" length="1.44" shape="3249.67,5231.49 3249.79,5232.93"/>
    </edge>
    <edge id=":1817571130_7" function="internal">
        <lane id=":1817571130_7_0" index="0" disallow="tram rail_urban rail rail_electric rail_fast ship" speed="3.65" length="3.23" shape="3249.79,5232.93 3249.42,5233.74 3248.54,5233.93 3247.17,5233.49"/>
    </edge>
    <edge id=":1817571130_4" function="internal">
        <lane id=":1817571130_4_0" index="0" disallow="tram rail_urban rail rail_electric rail_fast ship" speed="6.51" length="9.02" shape="3246.29,5241.35 3247.98,5239.55 3248.69,5237.64 3248.42,5235.62 3247.17,5233.49"/>
    </edge>
    <edge id=":1817571130_5" function="internal">
        <lane id=":1817571130_5_0" index="0" disallow="tram rail_urban rail rail_electric rail_fast ship" speed="7.40" length="11.70" shape="3246.29,5241.35 3249.51,5239.21 3252.32,5238.27 3254.71,5238.53 3256.68,5240.00"/>
    </edge>
    <edge id=":1817571131_0" function="internal">
        <lane id=":1817571131_0_0" index="0" disallow="tram rail_urban rail rail_electric rail_fast ship" speed="14.11" length="10.98" shape="3272.86,5268.18 3272.31,5265.11 3271.51,5262.90 3270.23,5260.90 3268.23,5258.48"/>
    </edge>
    <edge id=":1817571131_1" function="internal">
        <lane id=":1817571131_1_0" index="0" disallow="tram rail_urban rail rail_electric rail_fast ship" speed="9.40" length="3.24" shape="3272.86,5268.18 3272.86,5265.06 3272.90,5264.94"/>
    </edge>
    <edge id=":1817571131_2" function="internal">
        <lane id=":1817571131_2_0" index="0" disallow="tram rail_urban rail rail_electric rail_fast ship" speed="3.65" length="1.44" shape="3272.86,5268.18 3273.50,5266.88"/>
    </edge>
    <edge id=":1817571131_9" function="internal">
        <lane id=":1817571131_9_0" index="0" disallow="tram rail_urban rail rail_electric rail_fast ship" speed="9.40" length="9.46" shape="3272.90,5264.94 3273.74,5262.22 3275.51,5259.65 3278.15,5257.36"/>
    </edge>
    <edge id=":1817571131_10" function="internal">
        <lane id=":1817571131_10_0" index="0" disallow="tram rail_urban rail rail_electric rail_fast ship" speed="3.65" length="3.23" shape="3273.50,5266.88 3274.23,5266.38 3275.08,5266.67 3276.03,5267.75"/>
    </edge>
    <edge id=":1817571131_3" function="internal">
        <lane id=":1817571131_3_0" index="0" disallow="tram rail_urban rail rail_electric rail_fast ship" speed="8.07" length="9.19" shape="3279.98,5259.98 3278.02,5261.66 3276.71,5263.52 3276.05,5265.55 3276.03,5267.75"/>
    </edge>
    <edge id=":1817571131_4" function="internal">
        <lane id=":1817571131_4_0" index="0" disallow="tram rail_urban rail rail_electric rail_fast ship" speed="8.02" length="13.24" shape="3279.98,5259.98 3276.79,5261.61 3273.77,5261.90 3270.92,5260.86 3268.23,5258.48"/>
    </edge>
    <edge id=":1817571131_5" function="internal">
        <lane id=":1817571131_5_0" index="0" disallow="tram rail_urban rail rail_electric rail_fast ship" speed="3.65" length="4.67" shape="3279.98,5259.98 3278.54,5260.01 3277.75,5259.59 3277.62,5258.70 3278.15,5257.36"/>
    </edge>
    <edge id=":1817571131_6" function="internal">
        <lane id=":1817571131_6_0" index="0" disallow="tram rail_urban rail rail_electric rail_fast ship" speed="6.52" length="8.43" shape="3270.67,5256.40 3272.38,5257.92 3274.19,5258.58 3276.11,5258.39 3278.15,5257.36"/>
    </edge>
    <edge id=":1817571131_7" function="internal">
        <lane id=":1817571131_7_0" index="0" disallow="tram rail_urban rail rail_electric rail_fast ship" speed="15.19" length="12.76" shape="3270.67,5256.40 3272.78,5259.09 3274.32,5261.64 3275.37,5264.42 3276.03,5267.75"/>
    </edge>
    <edge id=":1817571131_8" function="internal">
        <lane id=":1817571131_8_0" index="0" disallow="tram rail_urban rail rail_electric rail_fast ship" speed="3.65" length="1.44" shape="3270.67,5256.40 3270.84,5257.84"/>
    </edge>
    <edge id=":1817571131_11" function="internal">
        <lane id=":1817571131_11_0" index="0" disallow="tram rail_urban rail rail_electric rail_fast ship" speed="3.65" length="3.23" shape="3270.84,5257.84 3270.49,5258.66 3269.62,5258.87 3268.23,5258.48"/>
    </edge>
    <edge id=":1817571133_0" function="internal">
        <lane id=":1817571133_0_0" index="0" disallow="tram rail_urban rail rail_electric rail_fast ship" speed="13.89" length="10.17" shape="3014.48,5429.70 3007.78,5422.06"/>
    </edge>
    <edge id=":1817571133_1" function="internal">
        <lane id=":1817571133_1_0" index="0" disallow="tram rail_urban rail rail_electric rail_fast ship" speed="7.08" length="2.41" shape="3014.48,5429.70 3013.39,5427.56"/>
    </edge>
    <edge id=":1817571133_2" function="internal">
        <lane id=":1817571133_2_0" index="0" disallow="tram rail_urban rail rail_electric rail_fast ship" speed="3.65" length="1.44" shape="3014.48,5429.70 3014.33,5428.27"/>
    </edge>
    <edge id=":1817571133_6" function="internal">
        <lane id=":1817571133_6_0" index="0" disallow="tram rail_urban rail rail_electric rail_fast ship" speed="7.08" length="8.80" shape="3013.39,5427.56 3013.58,5425.29 3015.04,5422.89 3017.77,5420.37"/>
    </edge>
    <edge id=":1817571133_7" function="internal">
        <lane id=":1817571133_7_0" index="0" disallow="tram rail_urban rail rail_electric rail_fast ship" speed="3.65" length="3.23" shape="3014.33,5428.27 3014.69,5427.45 3015.56,5427.25 3016.95,5427.66"/>
    </edge>
    <edge id=":1817571133_3" function="internal">
        <lane id=":1817571133_3_0" index="0" disallow="tram rail_urban rail rail_electric rail_fast ship" speed="6.58" length="8.58" shape="3010.11,5419.87 3011.89,5421.30 3013.76,5421.85 3015.72,5421.55 3017.77,5420.37"/>
    </edge>
    <edge id=":1817571133_4" function="internal">
        <lane id=":1817571133_4_0" index="0" disallow="tram rail_urban rail rail_electric rail_fast ship" speed="13.89" length="10.36" shape="3010.11,5419.87 3016.95,5427.66"/>
    </edge>
    <edge id=":1817571133_5" function="internal">
        <lane id=":1817571133_5_0" index="0" disallow="tram rail_urban rail rail_electric rail_fast ship" speed="3.65" length="1.44" shape="3010.11,5419.87 3010.35,5421.29"/>
    </edge>
    <edge id=":1817571133_8" function="internal">
        <lane id=":1817571133_8_0" index="0" disallow="tram rail_urban rail rail_electric rail_fast ship" speed="3.65" length="3.23" shape="3010.35,5421.29 3010.04,5422.13 3009.18,5422.39 3007.78,5422.06"/>
    </edge>
    <edge id=":1817577762_0" function="internal">
        <lane id=":1817577762_0_0" index="0" disallow="tram rail_urban rail rail_electric rail_fast ship" speed="5.67" length="9.24" shape="2765.13,5337.24 2763.75,5334.83 2762.17,5333.87 2760.39,5334.37 2758.41,5336.31"/>
    </edge>
    <edge id=":1817577762_1" function="internal">
        <lane id=":1817577762_1_0" index="0" disallow="tram rail_urban rail rail_electric rail_fast ship" speed="13.89" length="15.33" shape="2765.13,5337.24 2759.75,5322.88"/>
    </edge>
    <edge id=":1817577762_2" function="internal">
        <lane id=":1817577762_2_0" index="0" disallow="tram rail_urban rail rail_electric rail_fast ship" speed="3.65" length="1.44" shape="2765.13,5337.24 2765.41,5335.83"/>
    </edge>
    <edge id=":1817577762_9" function="internal">
        <lane id=":1817577762_9_0" index="0" disallow="tram rail_urban rail rail_electric rail_fast ship" speed="3.65" length="3.23" shape="2765.41,5335.83 2766.00,5335.15 2766.90,5335.22 2768.09,5336.03"/>
    </edge>
    <edge id=":1817577762_3" function="internal">
        <lane id=":1817577762_3_0" index="0" disallow="tram rail_urban rail rail_electric rail_fast ship" speed="13.89" length="15.09" shape="2762.79,5321.90 2768.09,5336.03"/>
    </edge>
    <edge id=":1817577762_4" function="internal">
        <lane id=":1817577762_4_0" index="0" disallow="tram rail_urban rail rail_electric rail_fast ship" speed="11.19" length="3.27" shape="2762.79,5321.90 2763.27,5325.14"/>
    </edge>
    <edge id=":1817577762_5" function="internal">
        <lane id=":1817577762_5_0" index="0" disallow="tram rail_urban rail rail_electric rail_fast ship" speed="3.65" length="1.44" shape="2762.79,5321.90 2762.40,5323.29"/>
    </edge>
    <edge id=":1817577762_10" function="internal">
        <lane id=":1817577762_10_0" index="0" disallow="tram rail_urban rail rail_electric rail_fast ship" speed="11.19" length="12.37" shape="2763.27,5325.14 2762.70,5328.62 2761.08,5332.34 2758.41,5336.31"/>
    </edge>
    <edge id=":1817577762_11" function="internal">
        <lane id=":1817577762_11_0" index="0" disallow="tram rail_urban rail rail_electric rail_fast ship" speed="3.65" length="3.23" shape="2762.40,5323.29 2761.76,5323.91 2760.87,5323.78 2759.75,5322.88"/>
    </edge>
    <edge id=":1817577762_6" function="internal">
        <lane id=":1817577762_6_0" index="0" disallow="tram rail_urban rail rail_electric rail_fast ship" speed="10.06" length="12.53" shape="2755.89,5334.34 2758.13,5331.06 2759.52,5328.05 2760.06,5325.33 2759.75,5322.88"/>
    </edge>
    <edge id=":1817577762_7" function="internal">
        <lane id=":1817577762_7_0" index="0" disallow="tram rail_urban rail rail_electric rail_fast ship" speed="7.41" length="16.79" shape="2755.89,5334.34 2759.49,5330.81 2762.72,5329.92 2765.59,5331.66 2768.09,5336.03"/>
    </edge>
    <edge id=":1817577762_8" function="internal">
        <lane id=":1817577762_8_0" index="0" disallow="tram rail_urban rail rail_electric rail_fast ship" speed="3.65" length="4.67" shape="2755.89,5334.34 2757.26,5333.89 2758.14,5334.06 2758.52,5334.87 2758.41,5336.31"/>
    </edge>
    <edge id=":1817577772_0" function="internal">
        <lane id=":1817577772_0_0" index="0" disallow="tram rail_urban rail rail_electric rail_fast ship" speed="22.22" length="14.51" shape="2739.75,5457.32 2736.09,5456.93 2732.52,5456.63 2728.94,5456.45 2725.27,5456.40"/>
    </edge>
    <edge id=":1817577772_1" function="internal">
        <lane id=":1817577772_1_0" index="0" disallow="tram rail_urban rail rail_electric rail_fast ship" speed="7.47" length="4.57" shape="2739.75,5457.32 2735.31,5456.19"/>
    </edge>
    <edge id=":1817577772_2" function="internal">
        <lane id=":1817577772_2_0" index="0" disallow="tram rail_urban rail rail_electric rail_fast ship" speed="3.65" length="1.44" shape="2739.75,5457.32 2738.64,5456.39"/>
    </edge>
    <edge id=":1817577772_9" function="internal">
        <lane id=":1817577772_9_0" index="0" disallow="tram rail_urban rail rail_electric rail_fast ship" speed="7.47" length="11.52" shape="2735.31,5456.19 2735.17,5456.15 2732.71,5453.92 2732.37,5450.62 2734.14,5446.24"/>
    </edge>
    <edge id=":1817577772_10" function="internal">
        <lane id=":1817577772_10_0" index="0" disallow="tram rail_urban rail rail_electric rail_fast ship" speed="3.65" length="3.23" shape="2738.64,5456.39 2738.33,5455.55 2738.82,5454.80 2740.10,5454.14"/>
    </edge>
    <edge id=":1817577772_3" function="internal">
        <lane id=":1817577772_3_0" index="0" disallow="tram rail_urban rail rail_electric rail_fast ship" speed="5.80" length="9.15" shape="2736.91,5447.84 2735.90,5450.33 2736.10,5452.21 2737.50,5453.48 2740.10,5454.14"/>
    </edge>
    <edge id=":1817577772_4" function="internal">
        <lane id=":1817577772_4_0" index="0" disallow="tram rail_urban rail rail_electric rail_fast ship" speed="10.56" length="15.12" shape="2736.91,5447.84 2734.35,5451.56 2731.55,5454.23 2728.53,5455.84 2725.27,5456.40"/>
    </edge>
    <edge id=":1817577772_5" function="internal">
        <lane id=":1817577772_5_0" index="0" disallow="tram rail_urban rail rail_electric rail_fast ship" speed="3.65" length="4.67" shape="2736.91,5447.84 2735.62,5448.48 2734.73,5448.43 2734.24,5447.68 2734.14,5446.24"/>
    </edge>
    <edge id=":1817577772_6" function="internal">
        <lane id=":1817577772_6_0" index="0" disallow="tram rail_urban rail rail_electric rail_fast ship" speed="9.38" length="11.80" shape="2725.24,5453.20 2727.64,5452.75 2729.92,5451.44 2732.09,5449.27 2734.14,5446.24"/>
    </edge>
    <edge id=":1817577772_7" function="internal">
        <lane id=":1817577772_7_0" index="0" disallow="tram rail_urban rail rail_electric rail_fast ship" speed="22.22" length="14.90" shape="2725.24,5453.20 2728.97,5453.25 2732.68,5453.44 2736.38,5453.75 2740.10,5454.14"/>
    </edge>
    <edge id=":1817577772_8" function="internal">
        <lane id=":1817577772_8_0" index="0" disallow="tram rail_urban rail rail_electric rail_fast ship" speed="3.65" length="1.44" shape="2725.24,5453.20 2726.45,5453.99"/>
    </edge>
    <edge id=":1817577772_11" function="internal">
        <lane id=":1817577772_11_0" index="0" disallow="tram rail_urban rail rail_electric rail_fast ship" speed="3.65" length="3.23" shape="2726.45,5453.99 2726.85,5454.79 2726.46,5455.59 2725.27,5456.40"/>
    </edge>
    <edge id=":2418417757_0" function="internal">
        <lane id=":2418417757_0_0" index="0" disallow="tram rail_urban rail rail_electric rail_fast ship" speed="13.89" length="11.21" shape="3128.89,5342.36 3121.98,5333.52"/>
    </edge>
    <edge id=":2418417757_1" function="internal">
        <lane id=":2418417757_1_0" index="0" disallow="tram rail_urban rail rail_electric rail_fast ship" speed="7.37" length="2.50" shape="3128.89,5342.36 3127.83,5340.09"/>
    </edge>
    <edge id=":2418417757_2" function="internal">
        <lane id=":2418417757_2_0" index="0" disallow="tram rail_urban rail rail_electric rail_fast ship" speed="3.65" length="1.44" shape="3128.89,5342.36 3128.78,5340.92"/>
    </edge>
    <edge id=":2418417757_9" function="internal">
        <lane id=":2418417757_9_0" index="0" disallow="tram rail_urban rail rail_electric rail_fast ship" speed="7.37" length="9.25" shape="3127.83,5340.09 3128.06,5337.69 3129.57,5335.14 3132.37,5332.46"/>
    </edge>
    <edge id=":2418417757_10" function="internal">
        <lane id=":2418417757_10_0" index="0" disallow="tram rail_urban rail rail_electric rail_fast ship" speed="3.65" length="3.23" shape="3128.78,5340.92 3129.17,5340.11 3130.05,5339.94 3131.42,5340.40"/>
    </edge>
    <edge id=":2418417757_3" function="internal">
        <lane id=":2418417757_3_0" index="0" disallow="tram rail_urban rail rail_electric rail_fast ship" speed="6.50" length="9.05" shape="3124.50,5331.54 3126.30,5333.26 3128.21,5333.98 3130.23,5333.72 3132.37,5332.46"/>
    </edge>
    <edge id=":2418417757_4" function="internal">
        <lane id=":2418417757_4_0" index="0" disallow="tram rail_urban rail rail_electric rail_fast ship" speed="13.89" length="11.24" shape="3124.50,5331.54 3131.42,5340.40"/>
    </edge>
    <edge id=":2418417757_5" function="internal">
        <lane id=":2418417757_5_0" index="0" disallow="tram rail_urban rail rail_electric rail_fast ship" speed="3.65" length="1.44" shape="3124.50,5331.54 3124.61,5332.98"/>
    </edge>
    <edge id=":2418417757_11" function="internal">
        <lane id=":2418417757_11_0" index="0" disallow="tram rail_urban rail rail_electric rail_fast ship" speed="3.65" length="3.23" shape="3124.61,5332.98 3124.23,5333.79 3123.36,5333.97 3121.98,5333.52"/>
    </edge>
    <edge id=":2418417757_6" function="internal">
        <lane id=":2418417757_6_0" index="0" disallow="tram rail_urban rail rail_electric rail_fast ship" speed="6.48" length="9.03" shape="3121.00,5341.35 3122.73,5339.58 3123.48,5337.69 3123.23,5335.67 3121.98,5333.52"/>
    </edge>
    <edge id=":2418417757_7" function="internal">
        <lane id=":2418417757_7_0" index="0" disallow="tram rail_urban rail rail_electric rail_fast ship" speed="13.89" length="14.43" shape="3121.00,5341.35 3132.37,5332.46"/>
    </edge>
    <edge id=":2418417757_8" function="internal">
        <lane id=":2418417757_8_0" index="0" disallow="tram rail_urban rail rail_electric rail_fast ship" speed="7.35" length="11.74" shape="3121.00,5341.35 3124.28,5339.28 3127.11,5338.43 3129.49,5338.80 3131.42,5340.40"/>
    </edge>
    <edge id=":248520012_0" function="internal">