<configuration>
<input>
<net-file value="C:\Users\MONSTER\Documents\GitHub\SUMOScripts\SUMO-1\my_data2\osm\Orhangazi.net.xml"/>
<route-files value="C:\Users\MONSTER\Documents\GitHub\SUMOScripts\SUMO-1\my_data2\osm\Orhangazi_routes.xml"/>
</input>
</configuration>
