<?xml version="1.0" encoding="UTF-8"?>

<!-- generated on 2024-10-20 15:32:36 by Eclipse SUMO duarouter Version 1.19.0
<configuration xmlns:xsi="http://www.w3.org/2001/XMLSchema-instance" xsi:noNamespaceSchemaLocation="http://sumo.dlr.de/xsd/duarouterConfiguration.xsd">

    <input>
        <net-file value="C:\Users\MONSTER\Documents\GitHub\SUMOScripts\SUMO-1\my_data2\osm\Orhaneli.net.xml"/>
        <route-files value="C:\Users\MONSTER\Documents\GitHub\SUMOScripts\SUMO-1\my_data2\osm\Orhaneli_trips.xml"/>
    </input>

    <output>
        <output-file value="C:\Users\MONSTER\Documents\GitHub\SUMOScripts\SUMO-1\my_data2\osm\Orhaneli_routes.xml"/>
    </output>

</configuration>
-->

<routes xmlns:xsi="http://www.w3.org/2001/XMLSchema-instance" xsi:noNamespaceSchemaLocation="http://sumo.dlr.de/xsd/routes_file.xsd">
    <vType id="passenger" vClass="passenger"/>
    <vehicle id="0" type="passenger" depart="12.00">
        <route edges="-886474162#1 886474162#1 -622738693 622738689 886474161#2 -173672802#0 173672800#0 173672800#1 173672800#2 173672800#3 173672800#4 173672800#5 173672800#6 173672800#7 173672773#1 -173672764#7 -189652060#7 -189652131#1 -189652141"/>
    </vehicle>
    <vehicle id="1" type="passenger" depart="52.00">
        <route edges="-173672771#0 173672758#11 173672758#12 173672801#2 173672801#3 189652053#0 189652053#1 189652114#1 189652114#2"/>
    </vehicle>
    <vehicle id="2" type="passenger" depart="61.00">
        <route edges="173672757#8 173672757#9 173672772#0 173672800#7 173672800#8 173672800#9 189652122#0 189652122#1 189652073#0"/>
    </vehicle>
    <vehicle id="3" type="passenger" depart="69.00">
        <route edges="622738701 -622738701 173672766#7 173672766#8 173672766#9 173672766#10 173672766#11 173672766#12 -173672756#7 -173672756#6 -173672756#5 -173672756#4 -173672756#3 -173672756#2 -173672756#1 -173672756#0 173672758#0 173672758#1 173672758#2 173672758#3 173672758#4 -189652122#2 189652073#0 -1308595433"/>
    </vehicle>
    <vehicle id="4" type="passenger" depart="84.00">
        <route edges="-622738698#2 -622738698#1 -622738698#0 173672756#9 -622579502#5 -622579502#4 -622579501 622577355#4 -622577361"/>
    </vehicle>
    <vehicle id="5" type="passenger" depart="152.00">
        <route edges="-189652053#1 189652109#1 -887637179#8 -887637179#7 -887637179#6 887637179#6"/>
    </vehicle>
    <vehicle id="6" type="passenger" depart="221.00">
        <route edges="1235068073 -622738693 622738689 886474161#2 -173672802#0 173672800#0 173672800#1 173672800#2 173672800#3 173672800#4 173672800#5 173672800#6 173672800#7 173672800#8 173672800#9 173672800#10 173672800#11 173672800#12 622738675#0 622738675#1 173672758#9 173672754#0 173672771#1 173672771#2 173672771#3 173672771#4 -173672771#4"/>
    </vehicle>
    <vehicle id="7" type="passenger" depart="226.00">
        <route edges="622577359#1 -622577359#1 -622577359#0 -622577358#1 -622577358#0 173672802#0 173672802#1 173672802#2 -173672756#16 -173672756#15"/>
    </vehicle>
    <vehicle id="8" type="passenger" depart="232.00">
        <route edges="-622738679#0 -622577354#0 189652137#1 189652137#2 189652137#3 173672800#2 173672800#3 173672800#4 173672800#5 173672800#6 173672800#7 173672800#8 173672800#9 189652122#0"/>
    </vehicle>
    <vehicle id="9" type="passenger" depart="286.00">
        <route edges="1235068035#3 1235068035#4 -189652120#2 -189652120#1 -189652120#0 189652095#2 887637180#0 887637180#1 887637180#2 887637180#3 887637180#4 887637180#5 173672801#6 173672801#7 173672801#8 173672772#0 173672800#7 173672800#8 173672800#9 189652122#0 189652122#1 622738676"/>
    </vehicle>
    <vehicle id="10" type="passenger" depart="389.00">
        <route edges="-622738711#0 622738711#0 622738711#1 -173672756#4 -173672756#3 -173672756#2 -173672756#1 -173672756#0 173672758#0 173672758#1 173672758#2 173672758#3 173672758#4 173672758#5 173672758#6 1308595432 622738667#1"/>
    </vehicle>
    <vehicle id="11" type="passenger" depart="512.00">
        <route edges="-622577357#2 622577357#2 622577358#1 622577358#2 622577358#3 622738681#1 -622579500#0 -173672756#11"/>
    </vehicle>
    <vehicle id="12" type="passenger" depart="524.00">
        <route edges="173672802#6 173672802#7 -173672802#7 -173672802#6 -173672802#5 -173672802#4 -173672802#3 -173672802#2 -173672802#1 -173672802#0 173672800#0 173672800#1 173672800#2 173672800#3 173672800#4 173672800#5 173672800#6 173672800#7 173672773#1 173672801#8 -173672757#9 -173672757#8 -173672757#7 -189652060#4 1235068045#0"/>
    </vehicle>
    <vehicle id="13" type="passenger" depart="542.00">
        <route edges="-189652069#1 -189652069#0 189652186#6 173672801#10 173672801#11 173672801#12 173672801#13 173672801#14 622577358#0 622577358#1 622577358#2 -622577355#7 -622577355#6 -622577355#5"/>
    </vehicle>
    <vehicle id="14" type="passenger" depart="549.00">
        <route edges="173672754#3 -173672754#3 -173672754#2 -173672754#1 173672771#1 173672771#2 622738669#0 622738669#1 622738669#2 622738669#3"/>
    </vehicle>
    <vehicle id="15" type="passenger" depart="579.00">
        <route edges="-886474162#0 886474161#1 886474161#2 -173672802#0 173672800#0 173672800#1 173672800#2 173672800#3 173672800#4 173672800#5 173672800#6 173672772#1 173672769#0 173672769#1 173672769#2 173672769#3"/>
    </vehicle>
    <vehicle id="16" type="passenger" depart="609.00">
        <route edges="189652120#1 189652055#2 189652095#0 189652095#1 189652095#2 887637180#0 887637180#1 887637180#2 887637180#3 887637180#4 887637180#5 173672801#6 173672801#7 173672801#8 173672772#0 173672772#1 173672769#0 173672769#1 173672769#2 173672769#3 173672756#0 173672756#1 173672756#2 173672756#3 173672756#4 173672756#5 173672756#6 173672756#7 173672756#8 173672756#9 173672756#10 622579502#2 622579502#3"/>
    </vehicle>
    <vehicle id="17" type="passenger" depart="624.00">
        <route edges="-886668474 -886668473#1 -1235068049#1 -1235068049#0 1235068048 189652186#5 189652069#0 189652069#1 173672757#9 173672772#0 173672800#7 173672800#8 173672800#9 173672800#10 173672800#11 173672800#12 622738675#0 622738675#1 173672758#9 173672754#0 173672771#1 173672771#2 622738669#0 622738669#1 622738669#2 -622738670#0"/>
    </vehicle>
    <vehicle id="18" type="passenger" depart="639.00">
        <route edges="-1308595425#0 1240838443#1 -622738701 173672766#7 173672766#8 173672766#9 173672766#10 173672766#11 173672766#12 -173672756#7 -173672756#6 -173672756#5 -173672756#4 -173672756#3 -173672756#2 -173672756#1 -173672756#0 173672758#0 173672758#1 173672758#2 173672758#3 173672758#4 173672758#5 173672758#6 173672758#7 173672758#8 173672758#9 173672754#0 173672771#1 173672771#2 -173672771#2"/>
    </vehicle>
    <vehicle id="19" type="passenger" depart="653.00">
        <route edges="189652060#5 -189652060#5 173672757#7 173672757#8 173672757#9 173672772#0 173672772#1 173672769#0 173672769#1 173672769#2 173672769#3 173672756#0 173672756#1 173672756#2 173672756#3 173672756#4 173672756#5 173672756#6 173672756#7 173672756#8 173672756#9 -622579502#5 -622579503 -622577355#1 -622577355#0"/>
    </vehicle>
    <vehicle id="20" type="passenger" depart="701.00">
        <route edges="-189652097#0 189652120#1 -189652055#1"/>
    </vehicle>
    <vehicle id="21" type="passenger" depart="796.00">
        <route edges="321438706#3 321438706#4 -173672758#2 -173672758#1 -173672758#0 173672756#0 173672756#1 173672756#2 173672756#3 173672756#4 173672756#5 -795941466#2 189652135#0"/>
    </vehicle>
    <vehicle id="22" type="passenger" depart="803.00">
        <route edges="795941462#1 -795941465 -173672794#1 173672800#4 173672800#5 173672800#6 173672800#7 173672773#1 173672801#8 -173672757#9 -173672757#8 -173672757#7 189652060#5"/>
    </vehicle>
    <vehicle id="23" type="passenger" depart="817.00">
        <route edges="-622738702#1 622738702#1 173672766#5 173672766#6 173672766#7 173672766#8 173672766#9 173672766#10 173672766#11 173672766#12 -173672756#7 189652081 795941466#2"/>
    </vehicle>
    <vehicle id="24" type="passenger" depart="840.00">
        <route edges="-1235068048 189652060#1 189652060#2 189652060#3 189652060#4 189652060#5 189652139#0 189652139#1"/>
    </vehicle>
    <vehicle id="25" type="passenger" depart="844.00">
        <route edges="-189652091#0 189652091#0 -189652053#5 -189652053#4 -189652053#3 -189652053#2 -189652053#1 -189652053#0 173672801#4 173672801#5 173672801#6 173672801#7 173672801#8 173672772#0 173672772#1 173672769#0 173672769#1 173672769#2 173672769#3 173672756#0 173672756#1 173672756#2 173672756#3 173672756#4 173672756#5 173672756#6 173672756#7 173672756#8 622738698#0 679729641 679729642#0 -679729642#0"/>
    </vehicle>
    <vehicle id="26" type="passenger" depart="848.00">
        <route edges="622579504#2 -622579504#2 -622579504#1 -622579504#0 -173672756#12 -173672756#11 -173672756#10 -173672756#9 -173672786#4 -173672786#3 -173672786#2"/>
    </vehicle>
    <vehicle id="27" type="passenger" depart="852.00">
        <route edges="679729647#1 -679729645#0 622579502#0 622579502#1 -173672756#10 -173672756#9 -173672756#8 -173672756#7 -173672756#6 -173672756#5 -173672756#4 -173672756#3 -173672756#2 -173672756#1 -173672756#0 -173672769#3 -173672769#2 -173672769#1 -173672769#0 173672773#0 173672773#1 -173672764#7 -173672764#6 -189652166#3 -189652166#2 -189652166#1 -189652166#0 -887637180#4 -887637180#3 -887637180#2 -887637180#1 -887637180#0 -189652095#2 -189652095#1 189652095#1"/>
    </vehicle>
    <vehicle id="28" type="passenger" depart="873.00">
        <route edges="-173672766#0 173672750 -173672802#5 -173672802#4 -173672802#3 -173672802#2 -173672802#1 -173672802#0 173672800#0 173672800#1 173672800#2 173672800#3 173672800#4 173672800#5 173672800#6 173672800#7 173672800#8 173672800#9 173672800#10 173672800#11 173672800#12 173672800#13 173672758#12 173672801#2 173672801#3 189652053#0 -189652109#0 -189652055#10 -189652055#9 -189652055#8"/>
    </vehicle>
    <vehicle id="29" type="passenger" depart="890.00">
        <route edges="-189652148#1 189652148#1 189652148#2 -173672758#7 -173672758#6 -173672758#5 -173672758#4 -173672758#3 -173672758#2 -173672758#1 -173672758#0 173672756#0 173672756#1 173672756#2 173672756#3 173672756#4 173672756#5 173672756#6 173672756#7 -173672766#12 -173672766#11 -173672766#10 -173672766#9 -173672766#8 -173672766#7 -173672766#6 -173672766#5 -173672766#4 -173672766#3 622738704#1 -622738704#1"/>
    </vehicle>
    <vehicle id="30" type="passenger" depart="973.00">
        <route edges="-1235068057#1 -1235068057#0 173672757#3 173672757#4 173672757#5 173672757#6 173672757#7 173672757#8 173672757#9 173672772#0 173672772#1 173672769#0 173672769#1 173672769#2 173672769#3 173672756#0 173672756#1 173672756#2 173672756#3 173672756#4 173672756#5 173672756#6 173672756#7 -173672766#12 -173672766#11 -173672766#10 -173672766#9 -173672766#8 -173672766#7 622738701 -1240838443#1"/>
    </vehicle>
    <vehicle id="31" type="passenger" depart="1020.00">
        <route edges="189652055#9 189652055#10 189652109#0 -189652053#0 173672801#4 173672801#5 173672801#6 173672801#7 173672801#8 173672772#0 173672800#7 173672800#8 173672800#9 173672800#10 173672800#11 173672800#12 622738675#0 622738675#1 173672758#9 173672754#0 173672771#1 173672771#2 622738669#0"/>
    </vehicle>
    <vehicle id="32" type="passenger" depart="1036.00">
        <route edges="622738676 321438706#2 321438706#3 321438706#4 -173672758#2 -173672758#1 -173672758#0 173672756#0 173672756#1 173672756#2 173672756#3 173672756#4 173672756#5 173672756#6 173672756#7 173672756#8 173672756#9 173672756#10 173672756#11 173672756#12 173672756#13 173672756#14 173672756#15 173672756#16 -173672802#2"/>
    </vehicle>
    <vehicle id="33" type="passenger" depart="1056.00">
        <route edges="622577358#0 622577358#1 622577358#2 622577358#3 622738681#1 -622579500#0 -173672756#11 -173672756#10 -173672756#9 -173672756#8 -173672756#7 -173672756#6 -173672756#5 -173672756#4 -173672756#3 -173672756#2 -173672756#1 -173672756#0 173672758#0 173672758#1 173672758#2 173672758#3 173672758#4 173672758#5 173672758#6 1308595432 622738667#1 622738667#2"/>
    </vehicle>
    <vehicle id="34" type="passenger" depart="1069.00">
        <route edges="-189652075 -189652053#2 -189652053#1 -189652053#0 173672801#4 173672801#5 173672801#6 173672801#7 173672801#8 173672801#9 173672801#10 173672794#0 173672794#1 795941465 795941466#0 795941466#1 -189652116 189652116"/>
    </vehicle>
    <vehicle id="35" type="passenger" depart="1099.00">
        <route edges="887637180#0 887637180#1 887637180#2 887637180#3 887637180#4 887637180#5 173672801#6 173672801#7 173672801#8 173672801#9 173672801#10 173672794#0 173672794#1 795941465 795941466#0 795941466#1 -189652116 173672786#1 -173672786#1"/>
    </vehicle>
    <vehicle id="36" type="passenger" depart="1144.00">
        <route edges="-622579513 622579513 679653933#0 -339704414#0 -173672769#3 -173672769#2 -173672769#1 -173672769#0 173672773#0 173672773#1 -173672764#7 -173672764#6 -189652166#3 -189652166#2 -189652166#1 -189652166#0 -887637180#4 -887637180#3 -887637180#2 -887637180#1 -887637180#0 -887637179#1 189652151#0 189652151#1 189652151#2 189652151#3 189652055#1"/>
    </vehicle>
    <vehicle id="37" type="passenger" depart="1181.00">
        <route edges="1235068045#0 1235068045#1 173672757#4 173672757#5 173672757#6 173672757#7 173672757#8 173672757#9 173672772#0 173672772#1 173672769#0 1235068053#0 -1235068053#0"/>
    </vehicle>
    <vehicle id="38" type="passenger" depart="1195.00">
        <route edges="173672764#7 173672801#8 173672801#9 173672801#10 173672794#0 173672794#1 795941465 795941466#0 795941466#1 -189652116 173672786#1 189652137#0 189652137#1 189652137#2 622577357#0 622577360"/>
    </vehicle>
    <vehicle id="39" type="passenger" depart="1200.00">
        <route edges="-622579509 622579508#2 -622579504#0 -173672756#12 -173672756#11 -173672756#10 -173672756#9 622738698#0 622738698#1 622738700 622738701 -1240838443#1 1308595425#0 1308595425#1 1308595425#2"/>
    </vehicle>
    <vehicle id="40" type="passenger" depart="1284.00">
        <route edges="189652060#1 189652060#2 189652060#3 189652060#4 -173672757#6 -173672757#5 -321438702#1 -321438702#0 321438702#0"/>
    </vehicle>
    <vehicle id="41" type="passenger" depart="1312.00">
        <route edges="-622579502#0 679729645#0 -679729645#0 622579502#0 622579502#1 -173672756#10 -173672756#9 -173672756#8 -173672756#7 -173672756#6 -173672756#5 -173672756#4 -173672756#3 -173672756#2 -173672756#1 -173672756#0 -173672769#3 -173672769#2 -173672769#1 -173672769#0 173672773#0 173672773#1 173672801#8 -173672757#9 -173672757#8 -173672757#7 -173672757#6 -173672757#5 -173672757#4 -173672757#3 1235068057#0 1235068057#1 -1235068057#1"/>
    </vehicle>
    <vehicle id="42" type="passenger" depart="1322.00">
        <route edges="-1240838443#0 1240838443#0 1240838443#1 1240838443#2 622738702#0 622738702#1 -173672766#4 -173672766#3 622738704#1 679729647#0"/>
    </vehicle>
    <vehicle id="43" type="passenger" depart="1357.00">
        <route edges="173672758#1 -173672758#1 -173672758#0 173672756#0 173672756#1 173672756#2 173672756#3 173672756#4 173672756#5"/>
    </vehicle>
    <vehicle id="44" type="passenger" depart="1416.00">
        <route edges="622579512 679653933#0 339704414#1 339704414#2 339704414#3 339704414#4 339704414#5 339704414#6 1240838445#0 1240838443#0 1308595425#0 1308595425#1 1308595427"/>
    </vehicle>
    <vehicle id="45" type="passenger" depart="1421.00">
        <route edges="-189652186#5 189652186#5 189652069#0 189652069#1 173672757#9 173672772#0 173672800#7 173672800#8 173672800#9 173672800#10 173672800#11 173672800#12 622738675#0 622738675#1 173672758#9 173672758#10"/>
    </vehicle>
    <vehicle id="46" type="passenger" depart="1445.00">
        <route edges="-173672758#9 -622738675#1 -622738675#0 173672800#13 173672758#12 173672801#2 1235068035#0 1235068035#1 1235068035#2 1235068035#3"/>
    </vehicle>
    <vehicle id="47" type="passenger" depart="1538.00">
        <route edges="622738703#1 -1240838443#3 -1240838443#2 -1240838443#1 -1240838443#0 1240838442 -679653929#0 -622738663#4 -622738663#3 -622738663#2 -622738663#1"/>
    </vehicle>
    <vehicle id="48" type="passenger" depart="1557.00">
        <route edges="-173672786#4 173672786#4 622738698#0 679729641 679729642#0 679729642#1 679729642#2 679729642#3 -622738704#1"/>
    </vehicle>
    <vehicle id="49" type="passenger" depart="1592.00">
        <route edges="622738711#1 -173672756#4 -173672756#3 -173672756#2 -173672756#1 -173672756#0 173672758#0 173672758#1 173672758#2 173672758#3 173672758#4 173672758#5 173672758#6 173672758#7 173672758#8 173672758#9 173672754#0 173672771#1 173672771#2 622738669#0 622738669#1 -622738669#1"/>
    </vehicle>
    <vehicle id="50" type="passenger" depart="1604.00">
        <route edges="887637180#1 887637180#2 887637180#3 887637180#4 887637180#5 173672801#6 173672801#7 173672801#8 173672772#0 173672772#1 173672769#0 173672769#1 173672769#2 173672769#3 173672756#0 173672756#1 173672756#2 173672756#3 173672756#4 -622738711#1 679653935"/>
    </vehicle>
    <vehicle id="51" type="passenger" depart="1644.00">
        <route edges="-622738704#1 173672766#3 173672766#4 173672766#5 173672766#6 173672766#7 173672766#8 173672766#9 173672766#10 173672766#11 173672766#12 -173672756#7 -173672756#6 -795941466#2 -795941466#1 -795941466#0 -795941465 -173672794#1 173672800#4 173672800#5 173672800#6"/>
    </vehicle>
    <vehicle id="52" type="passenger" depart="1663.00">
        <route edges="189652186#6 -189652186#6 189652069#0 189652069#1 -173672757#8 -189652131#2 189652060#7 -173672764#6 -189652166#3 -189652166#2 -189652166#1 -189652166#0 -887637180#4 1308595386#0 1308595386#1 1308595386#2 1308595386#3 -887637179#6 -887637179#5 -887637179#4 -189652091#1 -189652053#5"/>
    </vehicle>
    <vehicle id="53" type="passenger" depart="1749.00">
        <route edges="-1308595386#1 -1308595386#0 887637180#4 189652166#0 189652166#1 189652166#2 189652166#3 189652166#4 189652166#5 -189652139#2"/>
    </vehicle>
    <vehicle id="54" type="passenger" depart="1773.00">
        <route edges="-1308595432 -173672758#6 -173672758#5 -173672758#4 -173672758#3 -173672758#2 -173672758#1 -173672758#0 173672756#0 173672756#1 173672756#2 173672756#3 173672756#4 173672756#5 173672756#6 173672756#7 173672756#8 173672756#9 173672756#10 173672756#11 173672756#12 622579504#0"/>
    </vehicle>
    <vehicle id="55" type="passenger" depart="1815.00">
        <route edges="-795941466#2 795941466#2 173672756#6 173672756#7 173672756#8 173672756#9 173672756#10 173672756#11 173672756#12 173672756#13 622579508#0 -622579507#1 -622579507#0"/>
    </vehicle>
    <vehicle id="56" type="passenger" depart="1835.00">
        <route edges="886474161#0 886474161#1 886474161#2 -173672802#0 173672800#0 173672800#1 173672800#2 173672800#3 173672800#4 173672800#5 173672800#6 173672800#7 173672773#1 -173672764#7 -189652060#7 -189652131#1 189652131#1"/>
    </vehicle>
    <vehicle id="57" type="passenger" depart="1853.00">
        <route edges="679729641 679729642#0 679729642#1 679729642#2 679729642#3 679729647#0 -679729653"/>
    </vehicle>
    <vehicle id="58" type="passenger" depart="1878.00">
        <route edges="622738696 -886668473#2 -886668473#1 -1235068049#1 1235068050 173672801#13 173672801#14 173672800#0 173672800#1 -189652137#3 622577357#0 622577357#1"/>
    </vehicle>
    <vehicle id="59" type="passenger" depart="1903.00">
        <route edges="-1240838445#2 -1240838445#1 -1240838445#0 -339704414#6 -339704414#5 -339704414#4 -339704414#3 -339704414#2 -339704414#1 -339704414#0 -173672769#3 -173672769#2 -173672769#1 -173672769#0 173672773#0 173672800#8 173672800#9 173672800#10 189652148#0 189652188#3 -622738673"/>
    </vehicle>
    <vehicle id="60" type="passenger" depart="1942.00">
        <route edges="189652188#1 1308595433 -189652073#0 189652122#2 -173672758#4 -173672758#3 -173672758#2 -173672758#1 -173672758#0 339704414#0 339704414#1 622738709#0 622738709#1"/>
    </vehicle>
    <vehicle id="61" type="passenger" depart="1944.00">
        <route edges="-886474159#0 -886474156#1 -886474156#0 -173672802#3 -173672802#2 -173672802#1 -173672802#0 173672800#0 173672800#1 173672800#2 173672800#3 173672800#4 173672800#5 173672800#6 173672800#7 173672773#1 173672801#8 -173672757#9 -173672757#8 -173672757#7 -173672757#6 -173672757#5 -173672757#4 -173672757#3 1235068057#0 -1235068057#0"/>
    </vehicle>
    <vehicle id="62" type="passenger" depart="1993.00">
        <route edges="-189652067 173672756#3 173672756#4 173672756#5 173672756#6 173672756#7 -173672766#12 -173672766#11 -173672766#10 -173672766#9 -173672766#8 -173672766#7 -173672766#6 -173672766#5 -173672766#4 -173672766#3 -173672766#2 679729644 -679729644"/>
    </vehicle>
    <vehicle id="63" type="passenger" depart="2015.00">
        <route edges="679729642#1 -622738705#1 173672766#4 173672766#5 173672766#6 173672766#7 173672766#8 173672766#9 173672766#10 173672766#11 173672766#12 -173672756#7 -173672756#6 -173672756#5 -173672756#4 -173672756#3 -173672756#2 -173672756#1 -173672756#0 173672758#0 173672758#1 173672758#2 173672758#3 173672758#4 173672758#5 173672758#6 173672758#7 173672758#8 173672758#9 173672754#0 173672771#1 173672771#2 173672771#3 -1235068028"/>
    </vehicle>
    <vehicle id="64" type="passenger" depart="2069.00">
        <route edges="622579508#1 622579508#2 -622579504#0 -173672756#12 -173672756#11 -173672756#10 -173672756#9 -173672756#8 -173672756#7 -173672756#6 -173672756#5 -173672756#4 -173672756#3 -173672756#2 -679653933#1 -679653933#0 -622579513 -622579514#5 -622579514#4 622579516 679653930#0 679653930#1"/>
    </vehicle>
    <vehicle id="65" type="passenger" depart="2076.00">
        <route edges="189652135#1 189652135#2 -189652087#1 -189652087#0 -173672756#0 173672758#0 173672758#1 173672758#2 173672758#3 173672758#4 173672758#5 173672758#6 173672758#7 173672758#8 173672758#9 173672754#0 -173672771#0"/>
    </vehicle>
    <vehicle id="66" type="passenger" depart="2078.00">
        <route edges="-1240838443#0 -1240838445#0 -339704414#6 -622738706"/>
    </vehicle>
    <vehicle id="67" type="passenger" depart="2083.00">
        <route edges="679729642#4 -679729644 173672766#2 173672766#3 173672766#4 -622738702#1 -622738702#0 -1240838443#2 -1240838443#1 1308595425#0 1308595426#0 -1308595426#0"/>
    </vehicle>
    <vehicle id="68" type="passenger" depart="2125.00">
        <route edges="339704414#1 -339704414#1 -339704414#0 173672758#0 173672758#1 173672758#2 -321438706#4 -321438706#3"/>
    </vehicle>
    <vehicle id="69" type="passenger" depart="2204.00">
        <route edges="-622738663#0 -173672758#5 -173672758#4 -173672758#3 -173672758#2 -173672758#1 -173672758#0 173672756#0 173672756#1 173672756#2 173672756#3 173672756#4 173672756#5 -795941466#2 -795941466#1 -795941466#0 -795941465 -173672794#1 -173672794#0 173672801#11 173672801#12 173672801#13 173672801#14 173672802#0 -886474161#2 -622738689"/>
    </vehicle>
    <vehicle id="70" type="passenger" depart="2247.00">
        <route edges="679729647#0 679729647#1 -679729645#0 622579502#0 622579502#1 -173672756#10 -173672756#9 -173672756#8 -173672756#7 -173672756#6 -173672756#5 -173672756#4 -173672756#3 -173672756#2 -173672756#1 -173672756#0 -173672769#3 -173672769#2 -173672769#1 -173672769#0 173672773#0 173672773#1 173672801#8 173672801#9 -189652186#6 -189652186#5 -189652186#4 -189652186#3 1235068046#0"/>
    </vehicle>
    <vehicle id="71" type="passenger" depart="2259.00">
        <route edges="-173672756#5 -173672756#4 -173672756#3 -173672756#2 -173672756#1 -173672756#0 -173672769#3 -173672769#2 -173672769#1 -173672769#0 173672773#0 173672773#1 173672801#8 173672801#9 -189652186#6 -189652186#5 -189652186#4 189652060#3"/>
    </vehicle>
    <vehicle id="72" type="passenger" depart="2269.00">
        <route edges="-189652137#3 622577357#0 622577357#1 622577357#2 622577357#3 679653934 -679653934 -622577357#3"/>
    </vehicle>
    <vehicle id="73" type="passenger" depart="2321.00">
        <route edges="-1235068035#2 -1235068035#1"/>
    </vehicle>
    <vehicle id="74" type="passenger" depart="2489.00">
        <route edges="173672802#5 -173672802#5 -173672802#4 -173672802#3 -173672756#16 -173672756#15 -173672756#14 -173672756#13 -173672756#12 -173672756#11 -173672756#10 -173672756#9 622738698#0 622738698#1 622738700 622738701 -1240838443#1 1308595425#0"/>
    </vehicle>
    <vehicle id="75" type="passenger" depart="2504.00">
        <route edges="-189652166#7 -189652166#6 -189652166#5 -189652166#4 173672764#6 173672764#7 173672801#8 173672772#0 173672800#7 173672800#8 173672800#9 189652122#0"/>
    </vehicle>
    <vehicle id="76" type="passenger" depart="2568.00">
        <route edges="-1235068046#1 -1235068047 1235068045#1 -1235068056#1 -189652166#8 -189652166#7 -189652166#6 -189652166#5 -189652166#4 -189652166#3 189652166#3"/>
    </vehicle>
    <vehicle id="77" type="passenger" depart="2767.00">
        <route edges="173672769#1 -173672769#1 -173672769#0 173672773#0 173672773#1 173672801#8 173672801#9 173672801#10 173672801#11 173672801#12 173672801#13 173672801#14 173672802#0 173672802#1 173672802#2 173672802#3 886474156#0 886474160#0 886474160#1"/>
    </vehicle>
    <vehicle id="78" type="passenger" depart="2800.00">
        <route edges="-622738703#1 622738705#0 173672766#4 173672766#5 173672766#6 173672766#7 173672766#8 173672766#9 173672766#10 173672766#11 173672766#12 -173672756#7 -173672756#6 -173672756#5 -173672756#4 -173672756#3 -173672756#2 -173672756#1 -173672756#0 -173672769#3 -173672769#2 -173672769#1 -173672769#0 173672773#0 173672773#1 -173672764#7 -173672764#6 -189652166#3 -189652166#2 -189652166#1 -189652166#0 -887637180#4 -887637180#3 -887637180#2 -887637180#1 -887637180#0 -887637179#1 189652151#0 189652151#1 189652151#2 189652151#3 -189652055#0 -887637182#0 -189652118#2"/>
    </vehicle>
    <vehicle id="79" type="passenger" depart="2821.00">
        <route edges="622577356#1 -622577356#1 -622577356#0 189652137#2 189652137#3 173672800#2 173672800#3 173672800#4 173672800#5 173672800#6 173672800#7 173672773#1 -173672764#7 -173672764#6 -189652166#3 -189652166#2 -189652166#1 -189652166#0 887637180#5"/>
    </vehicle>
    <vehicle id="80" type="passenger" depart="2826.00">
        <route edges="795941462#1 -795941465 -173672794#1 173672800#4 173672800#5 173672800#6 173672772#1 173672769#0 173672769#1 173672769#2"/>
    </vehicle>
    <vehicle id="81" type="passenger" depart="2927.00">
        <route edges="-622738665 -622738663#1 -622738663#0 -173672758#5 -173672758#4 -173672758#3 -173672758#2 -339706747#3 -339706747#2 -339706747#1 339706747#1"/>
    </vehicle>
    <vehicle id="82" type="passenger" depart="2931.00">
        <route edges="173672756#9 -173672756#9 -173672756#8 -173672756#7 -173672756#6 -173672756#5 -173672756#4 -173672756#3 -173672756#2 -173672756#1 -173672756#0 -173672769#3 -173672769#2 -173672769#1 -173672769#0 173672773#0 173672773#1 -173672764#7 -173672764#6 -189652166#3 -189652166#2 -189652166#1 -189652166#0 -887637180#4 1308595386#0 1308595386#1 1308595386#2 1308595386#3 -887637179#6 -887637179#5 -887637179#4 -887637179#3"/>
    </vehicle>
    <vehicle id="83" type="passenger" depart="2973.00">
        <route edges="-189652055#2 189652055#2 189652055#3"/>
    </vehicle>
    <vehicle id="84" type="passenger" depart="2983.00">
        <route edges="173672758#9 -173672758#9 -173672758#8 -173672758#7 -173672758#6 -173672758#5 -173672758#4 -173672758#3 -173672758#2 -173672758#1 -173672758#0 173672756#0 173672756#1 173672756#2 173672756#3 173672756#4 173672756#5 173672756#6 173672756#7 173672756#8 173672756#9 173672756#10 173672756#11 622579500#0 -622738681#1 -622738681#0 622577355#7"/>
    </vehicle>
    <vehicle id="85" type="passenger" depart="2996.00">
        <route edges="679729644 -679729644 173672766#2 173672766#3 173672766#4 173672766#5 173672766#6 173672766#7 173672766#8 173672766#9 173672766#10 173672766#11 173672766#12 -173672756#7 -173672756#6 -173672756#5 -173672756#4 -173672756#3 -173672756#2 -173672756#1 -173672756#0 173672758#0 173672758#1 173672758#2 173672758#3 173672758#4 173672758#5 173672758#6 173672758#7 173672758#8"/>
    </vehicle>
    <vehicle id="86" type="passenger" depart="3073.00">
        <route edges="-189652121#0 189652121#0 189652121#1 189652066 887637180#0 887637180#1 887637180#2 887637180#3 887637180#4 887637180#5 173672801#6 173672801#7 173672801#8 173672801#9 173672801#10 173672801#11 173672801#12 -1235068050 1235068049#1 886668473#1 886668473#2"/>
    </vehicle>
    <vehicle id="87" type="passenger" depart="3083.00">
        <route edges="173672769#2 -173672769#2 -173672769#1 -173672769#0 173672773#0 173672773#1 -173672764#7 -173672764#6 -189652166#3 -189652166#2 -189652166#1 -189652166#0 -887637180#4 1308595386#0 1308595386#1 1308595386#2 1308595386#3 -1308595386#3 -1308595386#2"/>
    </vehicle>
    <vehicle id="88" type="passenger" depart="3103.00">
        <route edges="-173672757#8 173672757#8 173672757#9 173672801#9 173672801#10 173672801#11 173672801#12 173672801#13 173672801#14 173672802#0 -173672802#0"/>
    </vehicle>
    <vehicle id="89" type="passenger" depart="3122.00">
        <route edges="622738675#1 -173672758#8 -173672758#7 -173672758#6 -173672758#5 -173672758#4 -173672758#3 -173672758#2 -173672758#1 -173672758#0 -173672769#3 -173672769#2 -173672769#1 -173672769#0 173672773#0 173672773#1 -173672764#7 -173672764#6 -173672764#5 -173672764#4 -173672764#3 173672764#3"/>
    </vehicle>
    <vehicle id="90" type="passenger" depart="3127.00">
        <route edges="1308595428 -1308595427 -1308595425#1 -1308595425#0 1240838443#1 -622738701 173672766#7 173672766#8 173672766#9 173672766#10 173672766#11 173672766#12 -173672756#7 -173672756#6 -795941466#2 -795941466#1 -795941466#0 -795941465 -173672794#1 -173672794#0 173672801#11 173672801#12 -1235068050"/>
    </vehicle>
    <vehicle id="91" type="passenger" depart="3147.00">