<?xml version="1.0" encoding="UTF-8"?>

<!-- generated on 2024-10-20 15:32:00 by Eclipse SUMO duarouter Version 1.19.0
<configuration xmlns:xsi="http://www.w3.org/2001/XMLSchema-instance" xsi:noNamespaceSchemaLocation="http://sumo.dlr.de/xsd/duarouterConfiguration.xsd">

    <input>
        <net-file value="C:\Users\MONSTER\Documents\GitHub\SUMOScripts\SUMO-1\my_data2\osm\Orhangazi.net.xml"/>
        <route-files value="C:\Users\MONSTER\Documents\GitHub\SUMOScripts\SUMO-1\my_data2\osm\Orhangazi_trips.xml"/>
    </input>

    <output>
        <output-file value="C:\Users\MONSTER\Documents\GitHub\SUMOScripts\SUMO-1\my_data2\osm\Orhangazi_routes.xml"/>
    </output>

</configuration>
-->

<routes xmlns:xsi="http://www.w3.org/2001/XMLSchema-instance" xsi:noNamespaceSchemaLocation="http://sumo.dlr.de/xsd/routes_file.xsd">
    <vType id="passenger" vClass="passenger"/>
    <vehicle id="0" type="passenger" depart="46.00">
        <route edges="-157104959#0 317467320#3 -852626190#0 317467269#0 317467269#1 317467269#2 317467269#3 317467269#4 317467269#5 317467269#6 317467269#7 317467269#8 317467269#9 317467269#10 317467269#11 317467269#12 317467269#13 317467269#14 558195537#0 558195537#1 852637432#0 157104960#0 157104960#1 157104960#2 157104960#3 157104960#4 409887043 769204143#2 233341045 -195737388#6 -195737388#5 -195737388#4 -157105517#3 -157105517#2 -157105517#1 -157105517#0 593709961#1"/>
    </vehicle>
    <vehicle id="1" type="passenger" depart="59.00">
        <route edges="-195711939#4 -195711939#3 -195711939#2 -195711939#1 -195711939#0 195711906 195711882#0 195711882#1 831100075#3 831100075#4 -195711842#3 -195711842#2"/>
    </vehicle>
    <vehicle id="2" type="passenger" depart="84.00">
        <route edges="-852676854 852676854 852676852 157104960#4 409887043 769204143#2 769204143#3 769204142#0 769204142#1 769204142#2 769204142#3 769204142#4 769204142#5 769204142#6 195711805 195711806#0 233341484#0 233341484#1 195711997#0 195711997#1 195711997#2 195711997#3 -195711890#2 195711890#2"/>
    </vehicle>
    <vehicle id="3" type="passenger" depart="173.00">
        <route edges="-317467469#2 -317467469#1 -317467469#0 -835791024#8 -835791024#7 -835791024#6 -835791024#5 -835791024#4 -835791024#3 -835791024#2 -835791024#1 -835791024#0 -852631472#12 317467472#0 317467472#1 317467472#2 317467472#3 317467472#4 684884588#0 684884588#1 684884588#2 684884588#3 684884588#4 684884588#5 684884588#6 -317467269#8 -317467269#7 -317467269#6 -317467269#5 317467269#5"/>
    </vehicle>
    <vehicle id="4" type="passenger" depart="175.00">
        <route edges="831103250#4 831103250#5 831103250#6 831103250#7 831103250#8 831103250#9 831103250#10 831103250#11 831103250#12 831103250#13 558195538#0 558195538#1 558195538#2 558195538#3 558195538#4 558195538#5 558195538#6 852637431#0 852637431#1 852637432#2 852637432#3 852637432#0 157104960#0 157104960#1 157104960#2 157104960#3 157104960#4 409887043 769204143#2 769204143#3 769204142#0 769204142#1 769204142#2 -684876981#6 -684876981#5 -684876981#4 -684876981#3 317468091#3 317468091#4 317468091#5 -317468076"/>
    </vehicle>
    <vehicle id="5" type="passenger" depart="183.00">
        <route edges="852620377#3 -852620377#3 -852620377#2 -852620377#1 -852620377#0 -317467472#4 -317467379#2 -317467379#1 -317467379#0 -317467280 -317467322#6 -317467322#5 -317467322#4 -317467322#3 -317467322#2 -317467322#1 -317467322#0 -558195538#4 -558195538#3 -558195538#2 -558195538#1 -558195538#0 195711916#0 195711916#1 195711916#2 195711916#3 195711910 195711861#4 195711861#5 195711861#6 195711861#7 195711861#0 852676861#0 852676861#1 -195711939#4 -195711939#3 -195711939#2 -195711939#1 -195711939#0 195711939#0"/>
    </vehicle>
    <vehicle id="6" type="passenger" depart="190.00">
        <route edges="-317467453#0 317467453#0 317467304#1 157274013#1 157274013#2 157274013#3 157274013#4 157274013#5 157274013#6 157274013#7 157274013#8 157274013#9 157274013#10 157274013#11 157274013#12 157274013#13 319756803#0 195711853 831103248#0 831103248#1 831103248#2 831103248#3 831103248#4 831103248#5 831103248#6 831103248#7 831103248#8 831103248#9 831103248#10 195711861#3 195711861#4 852676859#0 852676859#1 852676859#2 195711807#2 195711807#3 769204143#1 769204143#2 769204143#3 769204142#0 769204142#1 -157105527#14 -157105527#13 -157105527#12 -157105527#11 -157105527#10 -157105527#9 -157105527#8 -157105527#7 -157105527#6 -157105527#5 -317468081 -625838108#0 625838108#0"/>
    </vehicle>
    <vehicle id="7" type="passenger" depart="256.00">
        <route edges="-879146219#1 -157274026#0 -852631470#6 157104951 832174328#2 832174328#3 832174325#0 832174325#1 832174325#2 4640707#1 4640707#2 4640707#3 4640707#4 4640707#5 4640707#6 4640707#7 4640707#8 233341045 -195737388#6 -195737388#5 -195737388#4 -195737388#3 157105523#6 157105523#7 157105523#8"/>
    </vehicle>
    <vehicle id="8" type="passenger" depart="283.00">
        <route edges="-157104988#0 157104988#0 -157104982#0 558195534#0 558195534#1 558195534#2 558195534#3 -317467294#3 -317467294#2 -317467294#1 -317467294#0 -157104960#2 -157104960#1 -157104960#0 852637432#1 -852637431#1 -852637431#0 -558195538#6 -558195538#5 -558195538#4 -558195538#3 -558195538#2 -558195538#1 -558195538#0 -831103250#13 -831103250#12 -831103250#11 -831103250#10 -831103250#9 -831103250#8 -831103250#7 -831103250#6 -831103250#5 -831103250#4 -319759055 195711970#6 195711970#7 -831103248#1 -831103248#0 831103247 -157274013#13 -157274013#12 -157274013#11 -157274013#10 -835791024#9 317467469#0 317467343#0"/>
    </vehicle>
    <vehicle id="9" type="passenger" depart="314.00">
        <route edges="-317467403#0 -831103248#6 -831103248#5 -831103248#4 -831103248#3 -831103248#2 -831103248#1 -831103248#0 831103247 319756803#0 -317467306#3 -317467306#2 -317467306#1 -317467306#0 317467458#2 -835791024#5 -835791024#4 -835791024#3 -835791024#2 317467423 -835979874#1 -835979874#0 -317467458#3"/>
    </vehicle>
    <vehicle id="10" type="passenger" depart="382.00">
        <route edges="-317468135#1 317468135#1 233341491#3 233341490#0 33549551#4 195711804 195711807#0 852676862 195711861#6 195711861#7 195711861#0 852676861#0 852676861#1 -195711939#4 -195711939#3 -195711939#2 -195711939#1 -195711939#0 -195711948#3 -195711941#2 -195711884#1 -195711884#0"/>
    </vehicle>
    <vehicle id="11" type="passenger" depart="403.00">
        <route edges="317467345#2 317467479#0 317467479#1 317467479#2 317467492#0 317467492#1 317467492#2 317467492#3 317467492#4 317467492#5 317467269#1 317467269#2 317467269#3 317467269#4 317467269#5 317467269#6 317467269#7 317467269#8 -684884588#6 -852620376#1 -852620376#0 -317467339#4 -317467363#1 852631472#2 -317467403#12 -195711849#1 -195711849#0"/>
    </vehicle>
    <vehicle id="12" type="passenger" depart="435.00">
        <route edges="-317467496#1 317467496#1 -831100082#3 -831100082#2 -831100082#1 -831100082#0 437713228 747207578#4 831100083 -831100084#1 195711948#0 195711948#1 195711948#2 195711948#3 195711939#0 195711939#1 195711939#2 852684703"/>
    </vehicle>
    <vehicle id="13" type="passenger" depart="458.00">
        <route edges="-317467359 157104973#1 157104964#1 157104964#2 157104964#3 157104964#4 558195534#0 558195534#1 558195534#2 558195534#3 -317467294#3 -317467294#2 -317467294#1 -317467294#0 -157104960#2 -157104960#1 -157104960#0 852637432#1 -852637431#1 -852637431#0 -558195538#6 -558195538#5 -558195538#4 -558195538#3 -558195538#2 -558195538#1 -558195538#0 -831103250#13 -831103250#12 -195711943#2 -195711943#1 -195711943#0 -831103248#8 -195711825#3 -195711825#2 -195711825#1 195711825#1"/>
    </vehicle>
    <vehicle id="14" type="passenger" depart="460.00">
        <route edges="317467494#1 -317467322#4 -317467322#3 -317467322#2 -317467322#1 -317467322#0 558195538#5 558195538#6 852637431#0 852637431#1 852637432#2 852637432#3 852637432#0 157104960#0 157104960#1 157104960#2 157104960#3 157104960#4 409887043 769204143#2 769204143#3 769204142#0 769204142#1 769204142#2 769204142#3 -317468059#4 157105527#0 317468126#0 317468126#1 -317468091#7"/>
    </vehicle>
    <vehicle id="15" type="passenger" depart="518.00">
        <route edges="-317468104#1 317468104#1 317468104#2 157105527#11 157105518#0 157105518#1 593709965#0 593709965#1 157105528#0 157105528#1 195737388#6 233341044 769204143#4 769204143#0 769204143#1 769204141#0 769204141#1 157104974#0 -558195534#1 157104966#2 157104966#3 157104966#4"/>
    </vehicle>
    <vehicle id="16" type="passenger" depart="570.00">
        <route edges="-684884588#7 -684884588#6 -684884588#5 -684884588#4 -684884588#3 -684884588#2 -684884588#1 -684884588#0 -317467472#4 -317467472#3 -317467472#2 -317467472#1 -317467472#0 852631472#12"/>
    </vehicle>
    <vehicle id="17" type="passenger" depart="576.00">
        <route edges="233341487 233341483#1 33549551#3 33549551#4 195711804 195711807#0 852676862 195711861#6 195711861#7 195711861#0 195711861#1 195711861#2 -831103248#10 -831103248#9 -831103248#8 -831103248#7 -831103248#6 -831103248#5 -831103248#4 -195711851#1 195711851#1"/>
    </vehicle>
    <vehicle id="18" type="passenger" depart="578.00">
        <route edges="835791029#2 835791029#3 835791029#4 -157106956#2 -157106956#1 -157106956#0 -835791029#0 -835979874#2 -835979874#1 -835979874#0 -317467458#3 -317467458#2 -317467458#1"/>
    </vehicle>
    <vehicle id="19" type="passenger" depart="617.00">
        <route edges="-195711943#1 -195711943#0 -831103248#8 -831103248#7 157274022 831100084#0 195711948#0 195711948#1 -684876976#5 -317467442#1"/>
    </vehicle>
    <vehicle id="20" type="passenger" depart="807.00">
        <route edges="-157274024#3 157274024#3 835791030#0 835791030#1 835791030#2 835791030#3 835791030#4 835791030#5 835791030#6 835791030#7 835791030#8 157274013#6 157274013#7 157274013#8 157274013#9 157274013#10 157274013#11 157274013#12 157274013#13 319756803#0 195711853 831103248#0 831103248#1 831103248#2 831103248#3 831103248#4 831103248#5 831103248#6 831103248#7 831103248#8 831103248#9 831103248#10 195711861#3 195711861#4 852676859#0 852676859#1 852676859#2 195711807#2 195711807#3 769204143#1 769204143#2 233341045 -195737388#6 -195737388#5 -195737388#4 -195737388#3 157105523#6 157105523#7 157105523#8 -157105523#8"/>
    </vehicle>
    <vehicle id="21" type="passenger" depart="852.00">
        <route edges="-157106956#0 835791029#1 -317467344#2 -317467344#1 -317467344#0 -852631472#12 317467472#0 317467472#1 317467472#2 317467472#3 317467472#4 684884588#0 684884588#1 684884588#2 684884588#3 684884588#4 -852631469"/>
    </vehicle>
    <vehicle id="22" type="passenger" depart="857.00">
        <route edges="-846355826 -319756806#2 846355825#0 846355825#1 317467398#0 317467398#1 317467322#8 317467322#9 -852631472#9 -852631472#8 -852631472#7"/>
    </vehicle>
    <vehicle id="23" type="passenger" depart="927.00">
        <route edges="319756806#4 846355821#0 846355821#1 831103250#5 831103250#6 831103250#7 831103250#8 831103250#9 831103250#10 831103250#11 831103250#12 831103250#13 558195538#0 558195538#1 558195538#2 558195538#3 558195538#4 558195538#5 317467412#0 317467412#1 317467412#2 852676854"/>
    </vehicle>
    <vehicle id="24" type="passenger" depart="939.00">
        <route edges="835791030#1 835791030#2 835791030#3 835791030#4 835791030#5 835791030#6 835791030#7 835791030#8 157274013#6 157274013#7 157274013#8 157274013#9 157274013#10 157274013#11 157274013#12 157274013#13 319756803#0 319756803#1 831103250#0 831103250#1 831103250#2 831103250#3 831103250#4 831103250#5 831103250#6 831103250#7 831103250#8 831103250#9 831103250#10 831103250#11 831103250#12 831103250#13 558195538#0 558195538#1 558195538#2 558195538#3 558195538#4 558195538#5 558195538#6 852637431#0 852637431#1 852637432#2 558195539 -317467269#14 -317467269#13 -317467269#12 -317467269#11 -317467269#10 -317467269#9 -317467269#8 -317467269#7 -317467269#6 157104977#0"/>
    </vehicle>
    <vehicle id="25" type="passenger" depart="950.00">
        <route edges="157106956#6 157106956#7 157106956#8 684884585#0 -684884585#0"/>
    </vehicle>
    <vehicle id="26" type="passenger" depart="950.00">
        <route edges="-317467406 852631471#1 195711912#3 195711912#4 852631472#1 852631472#2 852631472#3 852631472#4 852631472#5 852631472#6 852631472#7 852631472#8 852631472#9 852631472#10 -852620373 -317467324 -852620375#0 -317467260#4 317467260#4"/>
    </vehicle>
    <vehicle id="27" type="passenger" depart="979.00">
        <route edges="4640707#5 4640707#6 4640707#7 4640707#8 769204143#3 769204143#4 769204143#0 233341046 -157104960#4 -157104960#3 -157104960#2 -157104960#1 -157104960#0 852637432#1 852637432#2 558195539 -317467269#14 -317467269#13 -317467269#12 -317467269#11 -317467269#10 -317467269#9 -317467269#8 -317467269#7 -317467269#6 -317467269#5 -317467269#4 317467402#2 -317467402#2"/>
    </vehicle>
    <vehicle id="28" type="passenger" depart="983.00">
        <route edges="157104960#4 409887043 769204143#2 769204143#3 769204143#4 769204143#0 233341046 -157104960#4 -157104960#3 -157104960#2 -157104960#1 -157104960#0 852637432#1 -852637431#1 -852637431#0 -558195538#6 -558195538#5 -558195538#4 -558195538#3 -558195538#2 -558195538#1 -558195538#0 -831103250#13 -831103250#12 -831103250#11 -831103250#10 -831103250#9 -831103250#8 -831103250#7 -831103250#6 -831103250#5 -831103250#4 -319759055 195711970#6 195711970#7 -831103248#1 -831103248#0 831103247 -157274013#13 -157274013#12 -157274013#11 -157274013#10 -157274013#9 -157274013#8 -157274013#7 -157274013#6 -835791030#8 -835791030#7 -835791030#6 -835791030#5 -835791030#4 -835791030#3 -835791030#2"/>
    </vehicle>
    <vehicle id="29" type="passenger" depart="1010.00">
        <route edges="317468135#0 317468135#1 233341491#3 233341490#0 33549551#4 195711804 195711807#0 852676862 195711861#6 195711861#7 195711861#0 195711861#1 195711861#2 -831103248#10 -831103248#9 -831103248#8 -831103248#7 -831103248#6 -831103248#5 -831103248#4 -831103248#3 -831103248#2 -831103248#1 -831103248#0 831103247 -157274013#13 -157274013#12 -157274013#11 -157274013#10 -157274013#9 -157274013#8 -157274013#7 -157274013#6 -157274013#5 -157274013#4 -157274013#3 -317467421#3 -317467421#2 317467421#2"/>
    </vehicle>
    <vehicle id="30" type="passenger" depart="1055.00">
        <route edges="317467487#9 -317467494#0 -684884591 -195711974#2 -195711974#1 -195711974#0 558195538#4 558195538#5 558195538#6 852637431#0 -195711849#6"/>
    </vehicle>
    <vehicle id="31" type="passenger" depart="1081.00">
        <route edges="-157274026#1 157274026#1 157274026#2 157274026#3 157274026#4 157274026#5 157274026#6 -157274031#1 -157274031#0"/>
    </vehicle>
    <vehicle id="32" type="passenger" depart="1128.00">
        <route edges="-157104992#1 879153389#0 879153389#1 879146219#0 -157274026#0 852631470#7"/>
    </vehicle>
    <vehicle id="33" type="passenger" depart="1165.00">
        <route edges="-558195538#6 558195538#6 852637431#0 852637431#1 852637432#2 852637432#3 852637432#0 157104960#0 157104960#1 157104960#2 157104960#3 157104960#4 409887043 769204143#2 769204143#3 769204142#0 769204142#1 769204142#2 -684876981#6 -684876981#5 -317468035#0 317468078#0"/>
    </vehicle>
    <vehicle id="34" type="passenger" depart="1176.00">
        <route edges="317467501 -831103250#5 -831103250#4 -319759055 195711970#6 195711970#7 -831103248#1 -831103248#0 831103247 -157274013#13 -157274013#12 -157274013#11 -157274013#10 -157274013#9 -157274013#8 -317467445 -317467483#2"/>
    </vehicle>
    <vehicle id="35" type="passenger" depart="1180.00">
        <route edges="-195711943#5 -317467347 -558195538#0 195711916#0 195711916#1 195711916#2 195711848#0 195711848#1 195711848#2 195711848#3 -195711848#3"/>
    </vehicle>
    <vehicle id="36" type="passenger" depart="1189.00">
        <route edges="317467409 317467492#5 317467269#1 317467269#2 317467269#3 317467269#4 317467269#5 317467269#6 317467269#7 317467269#8 317467269#9 317467269#10 317467269#11 317467269#12"/>
    </vehicle>
    <vehicle id="37" type="passenger" depart="1342.00">
        <route edges="-319759053 319759053 846355822#1 195711970#4 195711970#5 195711970#6 195711970#7 -831103248#1 -831103248#0 831103247 -157274013#13 -157274013#12 -157274013#11 -157274013#10 -157274013#9 -157274013#8 -157274013#7 -157274013#6 -835791030#8 -835791030#7 -835791030#6 -835791030#5 -835791030#4 -835791030#3 -835791030#2 -835791030#1 -835791030#0 -157274027#2 -157274027#1 -157274027#0"/>
    </vehicle>
    <vehicle id="38" type="passenger" depart="1360.00">
        <route edges="-317467433#2 317467486#0 317467350#0 317467350#1 157274013#12 157274013#13 319756803#0 195711853 831103248#0 831103248#1 195711826#0 195711826#1 -195711826#1"/>
    </vehicle>
    <vehicle id="39" type="passenger" depart="1361.00">
        <route edges="-317468078#0 317468035#0 -317468035#0 317468078#0 317468095#2 317468095#3 317468095#4 -157105527#12 157105518#0 157105518#1 593709965#0 593709965#1 157105528#0 157105528#1 195737388#6 233341044 769204143#4 769204143#0 233341046 -157104960#4 -157104960#3 -157104960#2 -157104960#1 -157104960#0 852637432#1 852637432#2 558195539 832174326#0 832174326#1 -317467406 852631471#1 852631471#2 -684884588#8 -684884588#7"/>
    </vehicle>
    <vehicle id="40" type="passenger" depart="1373.00">
        <route edges="684884590#0 684884590#1 852631472#6 852631472#7 852631472#8 852631472#9 852631472#10 852631472#11 852631472#12 835791024#0 835791024#1 835791024#2 835791024#3"/>
    </vehicle>
    <vehicle id="41" type="passenger" depart="1412.00">
        <route edges="317467401#1 -317467260#3 -317467260#2 -317467260#1 -317467260#0 317467306#2 317467306#3 195711853 831103248#0 831103248#1 195711826#0 195711826#1 195711857#0 195711857#1 747207578#4 747207578#5 747207578#0 747207578#1 -747207580#5 -747207580#4 -747207580#3 -747207580#2 -317467346"/>
    </vehicle>
    <vehicle id="42" type="passenger" depart="1420.00">
        <route edges="-195737388#5 195737388#5 195737388#6 233341044 769204143#4 769204143#0 233341046 -157104960#4 -157104960#3 -157104960#2 -157104960#1 -157104960#0 852637432#1 852637432#2 558195539 -317467269#14 -317467269#13 -317467269#12 -317467269#11 -317467269#10 -317467269#9 -317467269#8 317467269#8"/>
    </vehicle>
    <vehicle id="43" type="passenger" depart="1446.00">
        <route edges="558195538#3 -558195538#3 -558195538#2 -558195538#1 -558195538#0 -831103250#13 -831103250#12 -831103250#11 195711912#12 -195711923#0"/>
    </vehicle>
    <vehicle id="44" type="passenger" depart="1462.00">
        <route edges="317467367#1 852620375#0 317467324 852620373 -852631472#10 -852631472#9 -852631472#8 -852631472#7 -852631472#6 -852631472#5 -852631472#4 195711849#0 195711849#1 195711849#2 195711849#3 195711849#4 195711849#5 195711849#6 852637431#1 852637432#2 852637432#3 852637432#0 157104960#0 157104960#1 157104960#2 157104960#3 157104960#4 409887043 769204143#2 769204143#3 769204142#0 769204142#1 769204142#2 769204142#3 -317468059#4 -317468059#3 -317468059#2 317468137 317468124#2 -317468124#2"/>
    </vehicle>
    <vehicle id="45" type="passenger" depart="1467.00">
        <route edges="317467287#0 317467287#1 -317467468#2 157274014#7 157274014#8 -157274031#2 -157274026#6 -157274026#5 -157274026#4 -879146218#7 -879146218#6 -879146218#5 -879146218#4 -879146218#3 -879146218#2 -879146218#1 -879146218#0 -852631471#5 -157104957 157104966#0 157104966#1 558195534#1 558195534#2 558195534#3 558195534#4"/>
    </vehicle>
    <vehicle id="46" type="passenger" depart="1502.00">
        <route edges="-831103250#9 -831103250#8 831103250#8 831103250#9 317467403#4 317467403#5 317467494#0 317467494#1 317467322#5 317467322#6 317467322#7 317467322#8 317467322#9 852631472#10"/>
    </vehicle>
    <vehicle id="47" type="passenger" depart="1519.00">
        <route edges="-317467495 317467495 157104981#1 832174326#8 -157104958#2"/>
    </vehicle>
    <vehicle id="48" type="passenger" depart="1559.00">
        <route edges="-747207580#4 747207580#4 747207580#5 747207578#2 747207578#3 747207578#4 831100083 -831100084#1 -831100084#0 -157274022 317467403#0 317467403#1 317467403#2 317467403#3 317467403#4 317467403#5 317467403#6 317467403#7 317467403#8 317467403#9 317467403#10 317467403#11 -195711849#1 -195711849#0"/>
    </vehicle>
    <vehicle id="49" type="passenger" depart="1586.00">
        <route edges="-747207580#4 747207580#4 747207580#5 747207578#2 747207578#3 747207578#4 831100083 -831100084#1 -831100084#0 -157274022 831103248#7 831103248#8 831103248#9 831103248#10 852676860 -195711916#3 -195711916#2 -195711916#1 -195711916#0 558195538#0 558195538#1 558195538#2 558195538#3 558195538#4 558195538#5 558195538#6 852637431#0 852637431#1 852637432#2 558195539 832174326#0 832174326#1 832174326#2 832174326#3 832174326#4 195711912#0 195711912#1 195711912#2"/>
    </vehicle>
    <vehicle id="50" type="passenger" depart="1586.00">
        <route edges="-157104972 157104972 832174326#4 195711912#0 195711912#1 195711912#2 195711912#3 195711912#4 852631472#1 852631472#2 -317467403#12"/>
    </vehicle>
    <vehicle id="51" type="passenger" depart="1636.00">
        <route edges="-195711817#1 -195711817#0 195711877#0 195711874 -195711968#0 -195711997#1 -195711997#0 233341485#0 233341485#1 233341487 233341483#1 33549551#3 33549551#4 195711804 195711807#0 852676862 195711861#6 195711861#7 195711861#0 195711861#1 195711861#2 -831103248#10 -831103248#9 -831103248#8 -831103248#7 157274022 831100084#0 831100084#1 747207582 747207578#1 747207578#2 747207581 831100082#0 831100082#1 831100082#2 831100082#3 831100082#4 317467404#0"/>
    </vehicle>
    <vehicle id="52" type="passenger" depart="1698.00">
        <route edges="747208345#0 747208346 -831100082#0 437713228 747207578#4 831100083 -831100084#1 -831100084#0 -157274022 831103248#7 831103248#8 831103248#9 831103248#10 852676860 -195711916#3 -195711916#2 -195711916#1 -195711916#0 558195538#0 558195538#1 558195538#2 558195538#3 558195538#4 558195538#5 558195538#6 852637431#0 852637431#1 852637432#2 558195539 832174326#0 832174326#1 832174326#2 832174326#3 832174326#4 832174326#5 832174326#6 832174326#7 -157104981#1 -157104981#0 157104982#0 -157104988#0"/>
    </vehicle>
    <vehicle id="53" type="passenger" depart="1704.00">
        <route edges="157274021#0 -157274023#2 -157274023#1 -157274023#0 -157274014#3 -157274014#2 -157274014#1 -317467475#1 -317467475#0 -852620377#2 317467301#0 317467301#1 317467301#2 684884588#2 684884588#3 684884588#4 684884588#5 684884588#6 684884588#7 684884588#8 852631471#3 852631471#4 -157104957 157104966#0 157104966#1 157104966#2 157104966#3 157104966#4 769204141#3 157104983#2 -317467359"/>
    </vehicle>
    <vehicle id="54" type="passenger" depart="1742.00">
        <route edges="-852631470#3 852631470#3 852631470#4 852631470#5 852631470#6 852631470#7 -684884585#7 -684884585#6 -684884585#5 -684884585#4 -684884585#3 -684884585#2 -684884585#1 317467457#1"/>
    </vehicle>
    <vehicle id="55" type="passenger" depart="1746.00">
        <route edges="-157104988#1 -157104982#0 558195534#0 558195534#1 558195534#2 558195534#3 -317467294#3 -317467294#2 -317467294#1 -317467294#0 -157104960#2 -157104960#1 -157104960#0 852637432#1 -852637431#1 -852637431#0 -558195538#6 -558195538#5 -558195538#4 -558195538#3 -558195538#2 -558195538#1 -558195538#0 -831103250#13 -831103250#12 -195711943#2 -195711943#1 -195711943#0 -831103248#8 -831103248#7 157274022 831100084#0 831100084#1 747207582 747207578#1 747207578#2 747207581 831100082#0 831100082#1 831100082#2 831100082#3 831100082#4 831100082#5 831100082#6 831100082#7 -684876969#1 -317467368#2"/>
    </vehicle>
    <vehicle id="56" type="passenger" depart="1781.00">
        <route edges="-317467366 319756806#6 -317467321#2 -317467321#1 -317467321#0 195711851#0 195711851#1 831103248#4 831103248#5 831103248#6 157274022 831100084#0"/>
    </vehicle>
    <vehicle id="57" type="passenger" depart="1853.00">
        <route edges="-157104958#0 157104958#0 157104958#1 157104964#4 558195534#0 558195534#1 157104974#1 832174326#6 157104957 -852631471#4 -852631471#3 -684884588#8 -684884588#7 -684884588#6 -684884588#5 -684884588#4 -684884588#3 -684884588#2"/>
    </vehicle>
    <vehicle id="58" type="passenger" depart="1876.00">
        <route edges="-195711974#3 195711974#3 -317467403#4 -831103250#9 -831103250#8 -831103250#7 -831103250#6 -831103250#5 -831103250#4 -319759055 195711970#6"/>
    </vehicle>
    <vehicle id="59" type="passenger" depart="1938.00">
        <route edges="879146219#1 -157274014#15 317467478#2 157274026#2 157274026#3 157274026#4 317467492#0 317467492#1 317467492#2 317467492#3 317467492#4 317467492#5 -317467269#0 -317467471#4 -317467471#3 -317467471#2 852626189#0 -317467259#2 -317467259#1"/>
    </vehicle>
    <vehicle id="60" type="passenger" depart="1988.00">
        <route edges="317468105#4 317468065#2 317468065#3 4640707#6 4640707#7 4640707#8 769204143#3 769204142#0 769204142#1 769204142#2 769204142#3 769204142#4 769204142#5 769204142#6 195711805 195711806#0 195711806#1 195711806#2 195711806#3 233341487 233341489#0 233341489#1 -233341491#3 -317468135#1 -317468135#0"/>
    </vehicle>
    <vehicle id="61" type="passenger" depart="1995.00">
        <route edges="-835791015 835791015 -195711826#2 195711857#0 195711857#1 747207578#4 747207578#5 747207578#0 747207578#1 -747207580#5 -317467442#6 -317467442#5 -317467442#4 -317467442#3 -317467442#2 -684876976#4"/>
    </vehicle>
    <vehicle id="62" type="passenger" depart="2003.00">
        <route edges="157274021#2 157274021#3 157274021#4 -157274019 157274024#0 -784302703 -317467343#2 -317467254#1 -317467254#0 -835791024#7 -835791024#6 -317467458#2 -317467458#1 -317467458#0 -317467393#1 -317467393#0"/>
    </vehicle>
    <vehicle id="63" type="passenger" depart="2137.00">
        <route edges="157105527#5 157105527#6 157105527#7 157105527#8 157105527#9 157105527#10 157105527#11 157105518#0 157105518#1 593709965#0 593709965#1 157105528#0 157105528#1 195737388#6 233341044 769204143#4 769204143#0 233341046 -157104960#4 -157104960#3 -157104960#2 -157104960#1 -157104960#0 852637432#1 -852637431#1 -852637431#0 -558195538#6 -558195538#5 -558195538#4 195711974#0 195711974#1 195711974#2 684884591 317467494#0 -317467487#9 -317467487#8 -317467487#7 -317467487#6 -317467487#5 -317467487#4 317467487#4"/>
    </vehicle>
    <vehicle id="64" type="passenger" depart="2163.00">
        <route edges="317467492#5 317467269#1 317467269#2 317467269#3 317467269#4 317467269#5 317467269#6 317467269#7 317467269#8 317467269#9 317467269#10 317467269#11 317467269#12 317467269#13 317467269#14 558195537#0 558195537#1 852637432#0 852637432#1 -852637431#1 -852637431#0 -558195538#6 -558195538#5 -558195538#4 -558195538#3 -558195538#2 -558195538#1 -558195538#0 195711916#0 195711916#1 195711916#2 195711916#3 195711910 195711861#4 195711861#5 195711861#6 195711861#7 195711861#0 852676861#0 852676861#1 -195711939#4 -195711939#3 -195711939#2 -195711939#1 -195711939#0 195711906 195711882#0 195711882#1 831100075#3 831100075#4 831100075#0 831100075#1 852684706"/>
    </vehicle>
    <vehicle id="65" type="passenger" depart="2165.00">
        <route edges="-317467268#1 -317467268#0 195711848#1 195711848#2 195711848#3 195711807#3 769204143#1 769204143#2 769204143#3 769204142#0 769204142#1 769204142#2 769204142#3 -317468059#4 -317468059#3 317468059#3"/>
    </vehicle>
    <vehicle id="66" type="passenger" depart="2233.00">
        <route edges="-684884588#5 -684884588#4 -684884588#3 -684884588#2 -317467301#2 -317467301#1 -317467301#0 852620377#2 317467475#0 317467475#1 157274014#1 157274014#2 157274014#3 157274023#0 157274023#1 157274023#2 -157274021#0 157274027#0 157274027#1"/>
    </vehicle>
    <vehicle id="67" type="passenger" depart="2235.00">
        <route edges="-852631472#11 -852620373 317467487#2 -317467487#2"/>
    </vehicle>
    <vehicle id="68" type="passenger" depart="2274.00">
        <route edges="-317467260#0 317467306#2 317467306#3 195711853 831103248#0 831103248#1 195711826#0 195711826#1 195711857#0 195711857#1 747207578#4 831100083 -831100084#1"/>
    </vehicle>
    <vehicle id="69" type="passenger" depart="2277.00">
        <route edges="-317468124#1 -317468124#0 317468071#4 317468059#3 317468059#4 769204142#4 769204142#5 769204142#6 195711805 195711806#0 195711806#1 195711806#2 233341483#4 233341483#0 233341483#1 33549551#3 33549551#4 195711804 195711807#0 852676862 195711861#6 195711861#7 195711861#0 195711861#1 195711861#2 852676860 -195711916#3 -195711916#2 195711916#2"/>
    </vehicle>
    <vehicle id="70" type="passenger" depart="2349.00">
        <route edges="684884588#1 684884588#2 -317467370#1 -317467370#0 -317467339#1 -317467339#0 -852631472#4 195711849#0 195711849#1 195711849#2 195711849#3 195711849#4 195711849#5 195711849#6 -852637431#0 -558195538#6 -558195538#5 -558195538#4 -558195538#3 -558195538#2 -558195538#1 -558195538#0 195711916#0 852676857#0 852676857#1"/>
    </vehicle>
    <vehicle id="71" type="passenger" depart="2419.00">
        <route edges="-195711911#1 -195711941#0 -195711922#0 195711825#3 -831103248#7 -831103248#6 -831103248#5 -831103248#4 -831103248#3 -831103248#2 -195711970#7"/>
    </vehicle>
    <vehicle id="72" type="passenger" depart="2420.00">
        <route edges="317467479#0 684884585#3 684884585#4 684884585#5 684884585#6 684884585#7 684884585#8 157107269#1 832174328#3 832174325#0 832174325#1 832174325#2 4640707#1 4640707#2 4640707#3 4640707#4 4640707#5 4640707#6 4640707#7 4640707#8 769204143#3 769204142#0 769204142#1 769204142#2 -684876981#6 -684876981#5 317468035#1 317468111#0 317468111#1"/>
    </vehicle>
    <vehicle id="73" type="passenger" depart="2477.00">
        <route edges="-317467434#5 317467434#5 317467434#6 747207580#4 747207580#5 747207578#2 747207578#3 747207578#4 831100083 -831100084#1 -831100084#0 -195711826#6 -195711826#5 -195711826#4"/>
    </vehicle>
    <vehicle id="74" type="passenger" depart="2538.00">