<?xml version="1.0" encoding="UTF-8"?>

<!-- generated on 2024-10-20 15:32:34 by Eclipse SUMO netconvert Version 1.19.0
<configuration xmlns:xsi="http://www.w3.org/2001/XMLSchema-instance" xsi:noNamespaceSchemaLocation="http://sumo.dlr.de/xsd/netconvertConfiguration.xsd">

    <input>
        <osm-files value="C:\Users\MONSTER\Documents\GitHub\SUMOScripts\SUMO-1\my_data2\osm\Orhaneli.osm.xml"/>
    </input>

    <output>
        <output-file value="C:\Users\MONSTER\Documents\GitHub\SUMOScripts\SUMO-1\my_data2\osm\Orhaneli.net.xml"/>
    </output>

    <projection>
        <proj.utm value="true"/>
    </projection>

</configuration>
-->

<net version="1.16" junctionCornerDetail="5" limitTurnSpeed="5.50" xmlns:xsi="http://www.w3.org/2001/XMLSchema-instance" xsi:noNamespaceSchemaLocation="http://sumo.dlr.de/xsd/net_file.xsd">

    <location netOffset="-667979.45,-4416667.13" convBoundary="0.00,0.00,3410.28,3736.61" origBoundary="28.964819,39.883150,29.004814,39.916703" projParameter="+proj=utm +zone=35 +ellps=WGS84 +datum=WGS84 +units=m +no_defs"/>

    <type id="highway.footway" priority="1" numLanes="1" speed="2.78" allow="pedestrian" oneway="1" width="2.00"/>
    <type id="highway.living_street" priority="2" numLanes="1" speed="2.78" disallow="tram rail_urban rail rail_electric rail_fast ship" oneway="0"/>
    <type id="highway.residential" priority="3" numLanes="1" speed="13.89" disallow="tram rail_urban rail rail_electric rail_fast ship" oneway="0"/>
    <type id="highway.secondary" priority="11" numLanes="1" speed="27.78" disallow="tram rail_urban rail rail_electric rail_fast ship" oneway="0"/>
    <type id="highway.secondary_link" priority="6" numLanes="1" speed="22.22" disallow="tram rail_urban rail rail_electric rail_fast ship" oneway="0"/>
    <type id="highway.service" priority="1" numLanes="1" speed="5.56" allow="pedestrian delivery bicycle" oneway="0"/>
    <type id="highway.tertiary" priority="10" numLanes="1" speed="22.22" disallow="tram rail_urban rail rail_electric rail_fast ship" oneway="0"/>
    <type id="highway.track" priority="1" numLanes="1" speed="5.56" allow="pedestrian motorcycle moped bicycle" oneway="0"/>

    <edge id=":11464353075_0" function="internal">
        <lane id=":11464353075_0_0" index="0" disallow="tram rail_urban rail rail_electric rail_fast ship" speed="6.03" length="8.01" shape="2095.44,3181.04 2094.17,3178.89 2092.71,3177.66 2091.06,3177.33 2089.23,3177.92"/>
    </edge>
    <edge id=":11464353075_1" function="internal">
        <lane id=":11464353075_1_0" index="0" disallow="tram rail_urban rail rail_electric rail_fast ship" speed="22.22" length="14.42" shape="2095.44,3181.04 2089.49,3167.91"/>
    </edge>
    <edge id=":11464353075_2" function="internal">
        <lane id=":11464353075_2_0" index="0" disallow="tram rail_urban rail rail_electric rail_fast ship" speed="3.65" length="1.44" shape="2095.44,3181.04 2095.67,3179.62"/>
    </edge>
    <edge id=":11464353075_9" function="internal">
        <lane id=":11464353075_9_0" index="0" disallow="tram rail_urban rail rail_electric rail_fast ship" speed="3.65" length="3.23" shape="2095.67,3179.62 2096.24,3178.92 2097.13,3178.95 2098.36,3179.72"/>
    </edge>
    <edge id=":11464353075_3" function="internal">
        <lane id=":11464353075_3_0" index="0" disallow="tram rail_urban rail rail_electric rail_fast ship" speed="22.22" length="14.41" shape="2092.40,3166.59 2098.36,3179.72"/>
    </edge>
    <edge id=":11464353075_4" function="internal">
        <lane id=":11464353075_4_0" index="0" disallow="tram rail_urban rail rail_electric rail_fast ship" speed="7.94" length="4.16" shape="2092.40,3166.59 2093.51,3170.19 2093.49,3170.58"/>
    </edge>
    <edge id=":11464353075_5" function="internal">
        <lane id=":11464353075_5_0" index="0" disallow="tram rail_urban rail rail_electric rail_fast ship" speed="3.65" length="1.44" shape="2092.40,3166.59 2092.17,3168.01"/>
    </edge>
    <edge id=":11464353075_10" function="internal">
        <lane id=":11464353075_10_0" index="0" disallow="tram rail_urban rail rail_electric rail_fast ship" speed="7.94" length="9.04" shape="2093.49,3170.58 2093.36,3173.28 2091.93,3175.85 2089.23,3177.92"/>
    </edge>
    <edge id=":11464353075_11" function="internal">
        <lane id=":11464353075_11_0" index="0" disallow="tram rail_urban rail rail_electric rail_fast ship" speed="3.65" length="3.23" shape="2092.17,3168.01 2091.60,3168.71 2090.71,3168.67 2089.49,3167.91"/>
    </edge>
    <edge id=":11464353075_6" function="internal">
        <lane id=":11464353075_6_0" index="0" disallow="tram rail_urban rail rail_electric rail_fast ship" speed="6.43" length="8.31" shape="2087.71,3175.11 2089.34,3173.83 2090.17,3172.21 2090.22,3170.24 2089.49,3167.91"/>
    </edge>
    <edge id=":11464353075_7" function="internal">
        <lane id=":11464353075_7_0" index="0" disallow="tram rail_urban rail rail_electric rail_fast ship" speed="7.61" length="13.43" shape="2087.71,3175.11 2090.95,3174.00 2093.80,3174.40 2096.27,3176.30 2098.36,3179.72"/>
    </edge>
    <edge id=":11464353075_8" function="internal">
        <lane id=":11464353075_8_0" index="0" disallow="tram rail_urban rail rail_electric rail_fast ship" speed="3.65" length="4.67" shape="2087.71,3175.11 2089.14,3175.24 2089.88,3175.75 2089.91,3176.64 2089.23,3177.92"/>
    </edge>
    <edge id=":11464353076_0" function="internal">
        <lane id=":11464353076_0_0" index="0" disallow="tram rail_urban rail rail_electric rail_fast ship" speed="13.89" length="14.42" shape="2023.02,3187.35 2008.60,3187.64"/>
    </edge>
    <edge id=":11464353076_1" function="internal">
        <lane id=":11464353076_1_0" index="0" disallow="tram rail_urban rail rail_electric rail_fast ship" speed="7.85" length="4.14" shape="2023.02,3187.35 2019.02,3186.85 2018.93,3186.80"/>
    </edge>
    <edge id=":11464353076_2" function="internal">
        <lane id=":11464353076_2_0" index="0" disallow="tram rail_urban rail rail_electric rail_fast ship" speed="3.65" length="1.44" shape="2023.02,3187.35 2021.81,3186.57"/>
    </edge>
    <edge id=":11464353076_9" function="internal">
        <lane id=":11464353076_9_0" index="0" disallow="tram rail_urban rail rail_electric rail_fast ship" speed="7.85" length="10.39" shape="2018.93,3186.80 2016.25,3185.18 2014.71,3182.34 2014.40,3178.32"/>
    </edge>
    <edge id=":11464353076_10" function="internal">
        <lane id=":11464353076_10_0" index="0" disallow="tram rail_urban rail rail_electric rail_fast ship" speed="3.65" length="3.23" shape="2021.81,3186.57 2021.39,3185.78 2021.78,3184.97 2022.96,3184.15"/>
    </edge>
    <edge id=":11464353076_3" function="internal">
        <lane id=":11464353076_3_0" index="0" disallow="tram rail_urban rail rail_electric rail_fast ship" speed="6.33" length="9.04" shape="2017.60,3178.53 2017.79,3181.03 2018.75,3182.80 2020.47,3183.84 2022.96,3184.15"/>
    </edge>
    <edge id=":11464353076_4" function="internal">
        <lane id=":11464353076_4_0" index="0" disallow="tram rail_urban rail rail_electric rail_fast ship" speed="8.30" length="14.33" shape="2017.60,3178.53 2016.81,3182.45 2015.05,3185.28 2012.31,3187.01 2008.60,3187.64"/>
    </edge>
    <edge id=":11464353076_5" function="internal">
        <lane id=":11464353076_5_0" index="0" disallow="tram rail_urban rail rail_electric rail_fast ship" speed="3.65" length="4.67" shape="2017.60,3178.53 2016.72,3179.68 2015.89,3180.02 2015.12,3179.57 2014.40,3178.32"/>
    </edge>
    <edge id=":11464353076_6" function="internal">
        <lane id=":11464353076_6_0" index="0" disallow="tram rail_urban rail rail_electric rail_fast ship" speed="6.86" length="9.48" shape="2008.54,3184.44 2010.95,3184.01 2012.74,3182.85 2013.89,3180.96 2014.40,3178.32"/>
    </edge>
    <edge id=":11464353076_7" function="internal">
        <lane id=":11464353076_7_0" index="0" disallow="tram rail_urban rail rail_electric rail_fast ship" speed="13.89" length="14.42" shape="2008.54,3184.44 2022.96,3184.15"/>
    </edge>
    <edge id=":11464353076_8" function="internal">
        <lane id=":11464353076_8_0" index="0" disallow="tram rail_urban rail rail_electric rail_fast ship" speed="3.65" length="1.44" shape="2008.54,3184.44 2009.75,3185.21"/>
    </edge>
    <edge id=":11464353076_11" function="internal">
        <lane id=":11464353076_11_0" index="0" disallow="tram rail_urban rail rail_electric rail_fast ship" speed="3.65" length="3.23" shape="2009.75,3185.21 2010.17,3186.01 2009.79,3186.81 2008.60,3187.64"/>
    </edge>
    <edge id=":11464353077_0" function="internal">
        <lane id=":11464353077_0_0" index="0" disallow="tram rail_urban rail rail_electric rail_fast ship" speed="5.61" length="9.31" shape="2030.97,3064.64 2028.51,3063.24 2026.69,3063.24 2025.50,3064.62 2024.95,3067.40"/>
    </edge>
    <edge id=":11464353077_1" function="internal">
        <lane id=":11464353077_1_0" index="0" disallow="tram rail_urban rail rail_electric rail_fast ship" speed="22.22" length="15.65" shape="2030.97,3064.64 2018.47,3055.23"/>
    </edge>
    <edge id=":11464353077_2" function="internal">
        <lane id=":11464353077_2_0" index="0" disallow="tram rail_urban rail rail_electric rail_fast ship" speed="3.65" length="1.44" shape="2030.97,3064.64 2030.49,3063.28"/>
    </edge>
    <edge id=":11464353077_9" function="internal">
        <lane id=":11464353077_9_0" index="0" disallow="tram rail_urban rail rail_electric rail_fast ship" speed="3.65" length="3.23" shape="2030.49,3063.28 2030.66,3062.40 2031.46,3062.00 2032.90,3062.08"/>
    </edge>
    <edge id=":11464353077_3" function="internal">
        <lane id=":11464353077_3_0" index="0" disallow="tram rail_urban rail rail_electric rail_fast ship" speed="22.22" length="15.65" shape="2020.40,3052.67 2032.90,3062.08"/>
    </edge>
    <edge id=":11464353077_4" function="internal">
        <lane id=":11464353077_4_0" index="0" disallow="tram rail_urban rail rail_electric rail_fast ship" speed="11.19" length="3.53" shape="2020.40,3052.67 2022.66,3055.08 2022.75,3055.28"/>
    </edge>
    <edge id=":11464353077_5" function="internal">
        <lane id=":11464353077_5_0" index="0" disallow="tram rail_urban rail rail_electric rail_fast ship" speed="3.65" length="1.44" shape="2020.40,3052.67 2020.87,3054.03"/>
    </edge>
    <edge id=":11464353077_10" function="internal">
        <lane id=":11464353077_10_0" index="0" disallow="tram rail_urban rail rail_electric rail_fast ship" speed="11.19" length="12.50" shape="2022.75,3055.28 2024.17,3058.34 2024.94,3062.44 2024.95,3067.40"/>
    </edge>
    <edge id=":11464353077_11" function="internal">
        <lane id=":11464353077_11_0" index="0" disallow="tram rail_urban rail rail_electric rail_fast ship" speed="3.65" length="3.23" shape="2020.87,3054.03 2020.71,3054.91 2019.91,3055.31 2018.47,3055.23"/>
    </edge>
    <edge id=":11464353077_6" function="internal">
        <lane id=":11464353077_6_0" index="0" disallow="tram rail_urban rail rail_electric rail_fast ship" speed="10.07" length="12.86" shape="2021.76,3067.19 2021.78,3063.05 2021.24,3059.68 2020.13,3057.07 2018.47,3055.23"/>
    </edge>
    <edge id=":11464353077_7" function="internal">
        <lane id=":11464353077_7_0" index="0" disallow="tram rail_urban rail rail_electric rail_fast ship" speed="7.39" length="17.22" shape="2021.76,3067.19 2022.78,3062.05 2024.97,3059.49 2028.34,3059.50 2032.90,3062.08"/>
    </edge>
    <edge id=":11464353077_8" function="internal">
        <lane id=":11464353077_8_0" index="0" disallow="tram rail_urban rail rail_electric rail_fast ship" speed="3.65" length="4.67" shape="2021.76,3067.19 2022.64,3066.04 2023.46,3065.69 2024.23,3066.15 2024.95,3067.40"/>
    </edge>
    <edge id=":11464353094_0" function="internal">
        <lane id=":11464353094_0_0" index="0" disallow="tram rail_urban rail rail_electric rail_fast ship" speed="22.22" length="16.21" shape="2145.74,3264.04 2137.17,3250.29"/>
    </edge>
    <edge id=":11464353094_1" function="internal">
        <lane id=":11464353094_1_0" index="0" disallow="tram rail_urban rail rail_electric rail_fast ship" speed="7.44" length="6.42" shape="2145.74,3264.04 2142.92,3258.27"/>
    </edge>
    <edge id=":11464353094_2" function="internal">
        <lane id=":11464353094_2_0" index="0" disallow="tram rail_urban rail rail_electric rail_fast ship" speed="3.65" length="1.44" shape="2145.74,3264.04 2145.78,3262.60"/>
    </edge>
    <edge id=":11464353094_9" function="internal">
        <lane id=":11464353094_9_0" index="0" disallow="tram rail_urban rail rail_electric rail_fast ship" speed="7.44" length="13.29" shape="2142.92,3258.27 2142.87,3258.16 2142.98,3254.55 2146.09,3253.19 2152.18,3254.10"/>
    </edge>
    <edge id=":11464353094_10" function="internal">
        <lane id=":11464353094_10_0" index="0" disallow="tram rail_urban rail rail_electric rail_fast ship" speed="3.65" length="3.23" shape="2145.78,3262.60 2146.25,3261.84 2147.14,3261.75 2148.46,3262.35"/>
    </edge>
    <edge id=":11464353094_3" function="internal">
        <lane id=":11464353094_3_0" index="0" disallow="tram rail_urban rail rail_electric rail_fast ship" speed="5.51" length="10.07" shape="2151.80,3257.31 2148.67,3256.84 2147.07,3257.53 2147.00,3259.36 2148.46,3262.35"/>
    </edge>
    <edge id=":11464353094_4" function="internal">
        <lane id=":11464353094_4_0" index="0" disallow="tram rail_urban rail rail_electric rail_fast ship" speed="13.80" length="16.55" shape="2151.80,3257.31 2147.85,3256.26 2143.66,3254.91 2139.89,3252.99 2137.17,3250.29"/>
    </edge>
    <edge id=":11464353094_5" function="internal">
        <lane id=":11464353094_5_0" index="0" disallow="tram rail_urban rail rail_electric rail_fast ship" speed="3.66" length="4.72" shape="2151.80,3257.31 2150.69,3256.36 2150.39,3255.51 2150.88,3254.76 2152.18,3254.10"/>
    </edge>
    <edge id=":11464353094_6" function="internal">
        <lane id=":11464353094_6_0" index="0" disallow="tram rail_urban rail rail_electric rail_fast ship" speed="12.66" length="13.86" shape="2139.88,3248.60 2142.24,3251.06 2145.21,3252.45 2148.60,3253.29 2152.18,3254.10"/>
    </edge>
    <edge id=":11464353094_7" function="internal">
        <lane id=":11464353094_7_0" index="0" disallow="tram rail_urban rail rail_electric rail_fast ship" speed="22.22" length="16.21" shape="2139.88,3248.60 2148.46,3262.35"/>
    </edge>
    <edge id=":11464353094_8" function="internal">
        <lane id=":11464353094_8_0" index="0" disallow="tram rail_urban rail rail_electric rail_fast ship" speed="3.65" length="1.44" shape="2139.88,3248.60 2139.84,3250.04"/>
    </edge>
    <edge id=":11464353094_11" function="internal">
        <lane id=":11464353094_11_0" index="0" disallow="tram rail_urban rail rail_electric rail_fast ship" speed="3.65" length="3.23" shape="2139.84,3250.04 2139.37,3250.80 2138.48,3250.88 2137.17,3250.29"/>
    </edge>
    <edge id=":11464353122_0" function="internal">
        <lane id=":11464353122_0_0" index="0" allow="pedestrian motorcycle moped bicycle" speed="3.65" length="4.67" shape="2078.07,3206.29 2076.85,3207.06 2075.96,3207.10 2075.39,3206.41 2075.15,3204.99"/>
    </edge>
    <edge id=":11464353126_0" function="internal">
        <lane id=":11464353126_0_0" index="0" disallow="tram rail_urban rail rail_electric rail_fast ship" speed="6.68" length="9.25" shape="1570.50,3048.56 1573.07,3048.42 1575.01,3047.53 1576.30,3045.90 1576.96,3043.52"/>
    </edge>
    <edge id=":11464353126_1" function="internal">
        <lane id=":11464353126_1_0" index="0" disallow="tram rail_urban rail rail_electric rail_fast ship" speed="3.65" length="4.67" shape="1570.50,3048.56 1571.63,3049.45 1571.97,3050.28 1571.51,3051.05 1570.25,3051.75"/>
    </edge>
    <edge id=":11464353126_2" function="internal">
        <lane id=":11464353126_2_0" index="0" disallow="tram rail_urban rail rail_electric rail_fast ship" speed="6.42" length="9.04" shape="1575.22,3057.83 1575.16,3055.33 1574.32,3053.49 1572.68,3052.30 1570.25,3051.75"/>
    </edge>
    <edge id=":11464353126_3" function="internal">
        <lane id=":11464353126_3_0" index="0" disallow="tram rail_urban rail rail_electric rail_fast ship" speed="27.78" length="14.41" shape="1575.22,3057.83 1576.96,3043.52"/>
    </edge>
    <edge id=":11464353128_0" function="internal">
        <lane id=":11464353128_0_0" index="0" disallow="tram rail_urban rail rail_electric rail_fast ship" speed="9.41" length="11.28" shape="1480.86,3044.03 1478.45,3044.13 1476.05,3045.01 1473.67,3046.68 1471.30,3049.13"/>
    </edge>
    <edge id=":11464353128_1" function="internal">
        <lane id=":11464353128_1_0" index="0" disallow="tram rail_urban rail rail_electric rail_fast ship" speed="13.89" length="14.38" shape="1480.86,3044.03 1477.27,3043.42 1473.86,3042.50 1470.52,3041.32 1467.14,3039.92"/>
    </edge>
    <edge id=":11464353128_2" function="internal">
        <lane id=":11464353128_2_0" index="0" disallow="tram rail_urban rail rail_electric rail_fast ship" speed="3.65" length="1.44" shape="1480.86,3044.03 1479.76,3043.09"/>
    </edge>
    <edge id=":11464353128_9" function="internal">
        <lane id=":11464353128_9_0" index="0" disallow="tram rail_urban rail rail_electric rail_fast ship" speed="3.65" length="3.23" shape="1479.76,3043.09 1479.46,3042.25 1479.96,3041.51 1481.25,3040.86"/>
    </edge>
    <edge id=":11464353128_3" function="internal">
        <lane id=":11464353128_3_0" index="0" disallow="tram rail_urban rail rail_electric rail_fast ship" speed="13.89" length="13.45" shape="1468.42,3036.98 1471.66,3038.35 1474.69,3039.44 1477.79,3040.28 1481.25,3040.86"/>
    </edge>
    <edge id=":11464353128_4" function="internal">
        <lane id=":11464353128_4_0" index="0" disallow="tram rail_urban rail rail_electric rail_fast ship" speed="7.59" length="4.23" shape="1468.42,3036.98 1472.01,3039.20"/>
    </edge>
    <edge id=":11464353128_5" function="internal">
        <lane id=":11464353128_5_0" index="0" disallow="tram rail_urban rail rail_electric rail_fast ship" speed="3.65" length="1.44" shape="1468.42,3036.98 1469.20,3038.20"/>
    </edge>
    <edge id=":11464353128_10" function="internal">
        <lane id=":11464353128_10_0" index="0" disallow="tram rail_urban rail rail_electric rail_fast ship" speed="7.59" length="11.17" shape="1472.01,3039.20 1472.17,3039.30 1473.90,3042.09 1473.61,3045.37 1471.30,3049.13"/>
    </edge>
    <edge id=":11464353128_11" function="internal">
        <lane id=":11464353128_11_0" index="0" disallow="tram rail_urban rail rail_electric rail_fast ship" speed="3.65" length="3.23" shape="1469.20,3038.20 1469.24,3039.09 1468.56,3039.66 1467.14,3039.92"/>
    </edge>
    <edge id=":11464353128_6" function="internal">
        <lane id=":11464353128_6_0" index="0" disallow="tram rail_urban rail rail_electric rail_fast ship" speed="5.98" length="9.08" shape="1468.84,3047.08 1470.20,3044.86 1470.37,3042.93 1469.35,3041.28 1467.14,3039.92"/>
    </edge>
    <edge id=":11464353128_7" function="internal">
        <lane id=":11464353128_7_0" index="0" disallow="tram rail_urban rail rail_electric rail_fast ship" speed="10.60" length="14.47" shape="1468.84,3047.08 1471.80,3044.06 1474.86,3042.01 1478.01,3040.95 1481.25,3040.86"/>
    </edge>
    <edge id=":11464353128_8" function="internal">
        <lane id=":11464353128_8_0" index="0" disallow="tram rail_urban rail rail_electric rail_fast ship" speed="3.65" length="4.67" shape="1468.84,3047.08 1470.22,3046.67 1471.09,3046.87 1471.45,3047.69 1471.30,3049.13"/>
    </edge>
    <edge id=":11464353130_0" function="internal">
        <lane id=":11464353130_0_0" index="0" disallow="tram rail_urban rail rail_electric rail_fast ship" speed="13.89" length="17.27" shape="1421.09,3017.21 1417.34,3015.57 1413.05,3014.11 1408.70,3012.83 1404.73,3011.74"/>
    </edge>
    <edge id=":11464353130_1" function="internal">
        <lane id=":11464353130_1_0" index="0" disallow="tram rail_urban rail rail_electric rail_fast ship" speed="12.05" length="4.52" shape="1421.09,3017.21 1417.25,3014.81"/>
    </edge>
    <edge id=":11464353130_2" function="internal">
        <lane id=":11464353130_2_0" index="0" disallow="tram rail_urban rail rail_electric rail_fast ship" speed="3.65" length="1.44" shape="1421.09,3017.21 1420.39,3015.95"/>
    </edge>
    <edge id=":11464353130_9" function="internal">
        <lane id=":11464353130_9_0" index="0" disallow="tram rail_urban rail rail_electric rail_fast ship" speed="12.05" length="13.82" shape="1417.25,3014.81 1416.58,3014.39 1413.22,3011.18 1411.01,3007.57 1409.94,3003.56"/>
    </edge>
    <edge id=":11464353130_10" function="internal">
        <lane id=":11464353130_10_0" index="0" disallow="tram rail_urban rail rail_electric rail_fast ship" speed="3.65" length="3.23" shape="1420.39,3015.95 1420.40,3015.05 1421.12,3014.52 1422.55,3014.36"/>
    </edge>
    <edge id=":11464353130_3" function="internal">
        <lane id=":11464353130_3_0" index="0" disallow="tram rail_urban rail rail_electric rail_fast ship" speed="11.51" length="16.67" shape="1412.93,3001.59 1413.90,3005.51 1415.83,3008.94 1418.71,3011.89 1422.55,3014.36"/>
    </edge>
    <edge id=":11464353130_4" function="internal">
        <lane id=":11464353130_4_0" index="0" disallow="tram rail_urban rail rail_electric rail_fast ship" speed="7.62" length="16.53" shape="1412.93,3001.59 1412.99,3007.03 1411.64,3010.53 1408.88,3012.10 1404.73,3011.74"/>
    </edge>
    <edge id=":11464353130_5" function="internal">
        <lane id=":11464353130_5_0" index="0" disallow="tram rail_urban rail rail_electric rail_fast ship" speed="3.79" length="5.23" shape="1412.93,3001.59 1412.93,3003.20 1412.43,3004.07 1411.43,3004.19 1409.94,3003.56"/>
    </edge>
    <edge id=":11464353130_6" function="internal">
        <lane id=":11464353130_6_0" index="0" disallow="tram rail_urban rail rail_electric rail_fast ship" speed="5.67" length="8.53" shape="1405.57,3008.66 1407.77,3008.86 1409.23,3008.08 1409.96,3006.32 1409.94,3003.56"/>
    </edge>
    <edge id=":11464353130_7" function="internal">
        <lane id=":11464353130_7_0" index="0" disallow="tram rail_urban rail rail_electric rail_fast ship" speed="13.89" length="17.94" shape="1405.57,3008.66 1409.64,3009.78 1414.21,3011.14 1418.70,3012.69 1422.55,3014.36"/>
    </edge>
    <edge id=":11464353130_8" function="internal">
        <lane id=":11464353130_8_0" index="0" disallow="tram rail_urban rail rail_electric rail_fast ship" speed="3.65" length="1.44" shape="1405.57,3008.66 1406.52,3009.74"/>
    </edge>
    <edge id=":11464353130_11" function="internal">
        <lane id=":11464353130_11_0" index="0" disallow="tram rail_urban rail rail_electric rail_fast ship" speed="3.65" length="3.23" shape="1406.52,3009.74 1406.69,3010.62 1406.10,3011.29 1404.73,3011.74"/>
    </edge>
    <edge id=":11464353147_0" function="internal">
        <lane id=":11464353147_0_0" index="0" allow="pedestrian motorcycle moped bicycle" speed="9.72" length="0.59" shape="1404.84,3136.73 1404.74,3136.87 1404.68,3136.98 1404.64,3137.09 1404.60,3137.26"/>
    </edge>
    <edge id=":11464353147_1" function="internal">
        <lane id=":11464353147_1_0" index="0" disallow="tram rail_urban rail rail_electric rail_fast ship" speed="3.65" length="1.44" shape="1404.84,3136.73 1403.50,3137.25"/>
    </edge>
    <edge id=":11464353147_3" function="internal">
        <lane id=":11464353147_3_0" index="0" disallow="tram rail_urban rail rail_electric rail_fast ship" speed="3.65" length="3.23" shape="1403.50,3137.25 1402.61,3137.12 1402.19,3136.34 1402.22,3134.90"/>
    </edge>
    <edge id=":11464353147_2" function="internal">
        <lane id=":11464353147_2_0" index="0" allow="pedestrian motorcycle moped bicycle" speed="9.72" length="1.77" shape="1401.49,3136.49 1401.63,3135.98 1401.75,3135.64 1401.92,3135.33 1402.22,3134.90"/>
    </edge>
    <edge id=":11464353148_0" function="internal">
        <lane id=":11464353148_0_0" index="0" disallow="tram rail_urban rail rail_electric rail_fast ship" speed="6.41" length="9.04" shape="1431.56,2430.65 1430.45,2428.42 1428.90,2427.11 1426.91,2426.74 1424.48,2427.29"/>
    </edge>
    <edge id=":11464353148_1" function="internal">
        <lane id=":11464353148_1_0" index="0" disallow="tram rail_urban rail rail_electric rail_fast ship" speed="8.16" length="14.26" shape="1431.56,2430.65 1430.84,2426.77 1431.47,2423.55 1433.45,2421.01 1436.78,2419.14"/>
    </edge>
    <edge id=":11464353148_2" function="internal">
        <lane id=":11464353148_2_0" index="0" disallow="tram rail_urban rail rail_electric rail_fast ship" speed="2.78" length="4.67" shape="1431.56,2430.65 1431.94,2429.26 1432.58,2428.63 1433.46,2428.76 1434.60,2429.64"/>
    </edge>
    <edge id=":11464353148_3" function="internal">
        <lane id=":11464353148_3_0" index="0" disallow="tram rail_urban rail rail_electric rail_fast ship" speed="6.70" length="9.28" shape="1437.93,2422.13 1435.79,2423.34 1434.52,2425.00 1434.12,2427.10 1434.60,2429.64"/>
    </edge>
    <edge id=":11464353148_4" function="internal">
        <lane id=":11464353148_4_0" index="0" disallow="tram rail_urban rail rail_electric rail_fast ship" speed="22.22" length="14.41" shape="1437.93,2422.13 1424.48,2427.29"/>
    </edge>
    <edge id=":11464353148_5" function="internal">
        <lane id=":11464353148_5_0" index="0" disallow="tram rail_urban rail rail_electric rail_fast ship" speed="3.65" length="1.44" shape="1437.93,2422.13 1436.52,2421.81"/>
    </edge>
    <edge id=":11464353148_9" function="internal">
        <lane id=":11464353148_9_0" index="0" disallow="tram rail_urban rail rail_electric rail_fast ship" speed="3.65" length="3.23" shape="1436.52,2421.81 1435.86,2421.21 1435.95,2420.32 1436.78,2419.14"/>
    </edge>
    <edge id=":11464353148_6" function="internal">
        <lane id=":11464353148_6_0" index="0" disallow="tram rail_urban rail rail_electric rail_fast ship" speed="22.22" length="14.41" shape="1423.33,2424.30 1436.78,2419.14"/>
    </edge>
    <edge id=":11464353148_7" function="internal">
        <lane id=":11464353148_7_0" index="0" disallow="tram rail_urban rail rail_electric rail_fast ship" speed="7.92" length="4.11" shape="1423.33,2424.30 1427.20,2423.42 1427.34,2423.45"/>
    </edge>
    <edge id=":11464353148_8" function="internal">
        <lane id=":11464353148_8_0" index="0" disallow="tram rail_urban rail rail_electric rail_fast ship" speed="3.65" length="1.44" shape="1423.33,2424.30 1424.74,2424.62"/>
    </edge>
    <edge id=":11464353148_10" function="internal">
        <lane id=":11464353148_10_0" index="0" disallow="tram rail_urban rail rail_electric rail_fast ship" speed="7.92" length="10.27" shape="1427.34,2423.45 1430.37,2424.02 1432.83,2426.09 1434.60,2429.64"/>
    </edge>
    <edge id=":11464353148_11" function="internal">
        <lane id=":11464353148_11_0" index="0" disallow="tram rail_urban rail rail_electric rail_fast ship" speed="3.65" length="3.23" shape="1424.74,2424.62 1425.40,2425.22 1425.31,2426.11 1424.48,2427.29"/>
    </edge>
    <edge id=":11464353152_0" function="internal">
        <lane id=":11464353152_0_0" index="0" allow="pedestrian motorcycle moped bicycle" speed="4.17" length="0.42" shape="1444.02,2511.05 1443.99,2510.93 1443.97,2510.85 1443.95,2510.77 1443.93,2510.65"/>
    </edge>
    <edge id=":11464353152_1" function="internal">
        <lane id=":11464353152_1_0" index="0" allow="pedestrian motorcycle moped bicycle" speed="4.17" length="0.14" shape="1447.08,2510.08 1447.09,2510.12 1447.09,2510.15 1447.10,2510.17 1447.11,2510.21"/>
    </edge>
    <edge id=":11464353152_2" function="internal">
        <lane id=":11464353152_2_0" index="0" disallow="tram rail_urban rail rail_electric rail_fast ship" speed="2.78" length="2.34" shape="1447.08,2510.08 1446.50,2511.40 1445.79,2511.94"/>
    </edge>
    <edge id=":11464353152_3" function="internal">
        <lane id=":11464353152_3_0" index="0" disallow="tram rail_urban rail rail_electric rail_fast ship" speed="2.78" length="2.34" shape="1445.79,2511.94 1444.93,2511.68 1443.93,2510.65"/>
    </edge>
    <edge id=":11464353156_0" function="internal">
        <lane id=":11464353156_0_0" index="0" allow="pedestrian motorcycle moped bicycle" speed="7.84" length="11.41" shape="1509.37,2544.03 1508.88,2541.00 1507.59,2538.67 1505.51,2537.03 1502.63,2536.08"/>
    </edge>
    <edge id=":11464353156_1" function="internal">
        <lane id=":11464353156_1_0" index="0" disallow="tram rail_urban rail rail_electric rail_fast ship" speed="13.89" length="15.99" shape="1509.37,2544.03 1508.92,2528.04"/>
    </edge>
    <edge id=":11464353156_2" function="internal">
        <lane id=":11464353156_2_0" index="0" disallow="tram rail_urban rail rail_electric rail_fast ship" speed="8.20" length="3.09" shape="1509.37,2544.03 1509.90,2540.98"/>
    </edge>
    <edge id=":11464353156_3" function="internal">
        <lane id=":11464353156_3_0" index="0" disallow="tram rail_urban rail rail_electric rail_fast ship" speed="3.65" length="1.44" shape="1509.37,2544.03 1510.14,2542.81"/>
    </edge>
    <edge id=":11464353156_16" function="internal">
        <lane id=":11464353156_16_0" index="0" disallow="tram rail_urban rail rail_electric rail_fast ship" speed="8.20" length="10.75" shape="1509.90,2540.98 1511.67,2538.63 1514.68,2536.97 1518.93,2536.00"/>
    </edge>
    <edge id=":11464353156_17" function="internal">
        <lane id=":11464353156_17_0" index="0" disallow="tram rail_urban rail rail_electric rail_fast ship" speed="3.65" length="3.23" shape="1510.14,2542.81 1510.92,2542.38 1511.74,2542.76 1512.57,2543.94"/>
    </edge>
    <edge id=":11464353156_4" function="internal">
        <lane id=":11464353156_4_0" index="0" disallow="tram rail_urban rail rail_electric rail_fast ship" speed="6.06" length="9.06" shape="1518.29,2539.13 1515.73,2538.98 1513.92,2539.73 1512.86,2541.38 1512.57,2543.94"/>
    </edge>
    <edge id=":11464353156_5" function="internal">