<?xml version="1.0" encoding="UTF-8"?>

<!-- generated on 2024-10-20 15:30:51 by Eclipse SUMO duarouter Version 1.19.0
<configuration xmlns:xsi="http://www.w3.org/2001/XMLSchema-instance" xsi:noNamespaceSchemaLocation="http://sumo.dlr.de/xsd/duarouterConfiguration.xsd">

    <input>
        <net-file value="C:\Users\MONSTER\Documents\GitHub\SUMOScripts\SUMO-1\my_data2\osm\Osmangazi.net.xml"/>
        <route-files value="C:\Users\MONSTER\Documents\GitHub\SUMOScripts\SUMO-1\my_data2\osm\Osmangazi_trips.xml"/>
    </input>

    <output>
        <output-file value="C:\Users\MONSTER\Documents\GitHub\SUMOScripts\SUMO-1\my_data2\osm\Osmangazi_routes.xml"/>
    </output>

</configuration>
-->

<routes xmlns:xsi="http://www.w3.org/2001/XMLSchema-instance" xsi:noNamespaceSchemaLocation="http://sumo.dlr.de/xsd/routes_file.xsd">
    <vType id="passenger" vClass="passenger"/>
    <vehicle id="0" type="passenger" depart="52.00">
        <route edges="337411604 -26475416#0 337411384#2 337411384#3 -26475436#1 -26475436#0 345426530#0 345426530#1 345426529#0 345426529#1 345426529#2 1102160013#0 1102160013#1 26430668#0 26430668#1 26430668#2 26430668#3 26430666 929604644#0 929604644#1 928311165#0 928311165#1 64893034#0 64893034#1 26430615#1 26430615#2 26430615#3 1060094403#0 1060094403#1 1060094403#2 1060094404#0 1060094404#1 1060094404#2 1002056185 26455898#0 26455898#1 26455898#2 26455898#3 26455898#4 26455898#5 26455898#6 26455898#7 26455898#8 26455898#9 26455898#10 26455898#11 26455898#12 1002250352 342932559#0 342932559#1 1006757133 341197237#0 341197237#1 341197235#0 341197235#1 337422783 337422824 -350753793 -26536252#1 -26536252#0 -1037706103 -1037706042#0 26454094#3 26454094#4 26432007#1 26432007#2 26432007#3 26432007#4 26432007#5 26432007#6 26434046#0 26434046#1 342746332 343184088#0 343184088#1 343184088#2 724597252 1011411823 1011411824 724597257 26430484#0 26430484#1 26434340#0 26434340#1 26434331#1 26434331#2 26434331#3 26434200#21 -26445254#10 -26445254#9 -26445254#8 -26445254#7 -26445254#6 -26445254#5 26445257#0 26445257#1 26453994#4 26453994#5"/>
    </vehicle>
    <vehicle id="1" type="passenger" depart="90.00">
        <route edges="26480560#0 26480560#1 600383037 26431825#5 26431825#6 26431825#7 26431825#8 26431825#9 26431825#10 26431825#11 26432007#0 26432007#1 26432007#2 26432007#3 26432007#4 26432007#5 26432007#6 26434046#0 26434046#1 26434046#2 26434046#3 26434046#4 26434046#5 26434046#6 26434046#7 26434046#8 26430592#0 26430592#1 26430592#2 1060094403#0 1060094403#1 1060094403#2 1060094404#0 1060094404#1 1060094404#2 1002056185 26455898#0 26455898#1 26536239#0 -337201175#1 -1004934713#1 -26536225#1"/>
    </vehicle>
    <vehicle id="2" type="passenger" depart="102.00">
        <route edges="-274911383 -274911382#1 -274911382#0 -337422794#8 -337422794#7 -337422794#6 -337422794#5 -337422794#4 -337422794#3 -337422794#2 -337422794#1 -337422794#0 -337422804 -341197235#2 -341197235#1 -341197235#0 -341197237#1 -341197237#0 -1006757133 -342932559#1 -342932559#0 -1002250352 -26455898#12 -26455898#11 -26455898#10 -26455898#9 -26455898#8 -26455898#7 -26455898#6 -26455898#5 -26455898#4 -26455898#3 -26455898#2 -26455898#1 -26455898#0 -1002056185 -1060094404#2 -1060094404#1 -1060094404#0 -1060094403#2 -1060094403#1 -1060094403#0 1060094403#0 1060094403#1 1060094403#2"/>
    </vehicle>
    <vehicle id="3" type="passenger" depart="116.00">
        <route edges="-1009347296 337201793#1 -1035340609 -337201796#1 337201792 -26536180#1 -26536180#0 26455898#7 26455898#8 26455898#9 26455898#10 26455898#11 26455898#12 1002250352 342932559#0 342932559#1 1006757133 341197237#0 341197237#1 341197235#0 341197235#1 337422783 337422824 -350753793 -26536252#1 -26536252#0 -1037706103 -1037706042#0 26454094#3 26454094#4 26432007#1 26432007#2 26432007#3 26432007#4 26432007#5 26432007#6 26434046#0 26434046#1 342746332 343184088#0 343184088#1 343184088#2 724597252 1011411823 1011411824 724597257 26430484#0 26430484#1 26434340#0 26434340#1 26434331#1 26434331#2 26434331#3 -26434200#20 -26434200#19 -26434200#18 -26434200#17 -26434200#16 -26434200#15 -26434200#14 -26434200#13 -26434200#12 -26434200#11 26434200#11"/>
    </vehicle>
    <vehicle id="4" type="passenger" depart="262.00">
        <route edges="-769745700#3 -769745700#2 -769745700#1 -769745700#0 -337196052#1 -337196052#0 -1101887593#1 -1101887593#0 -337195954 337195887#1"/>
    </vehicle>
    <vehicle id="5" type="passenger" depart="301.00">
        <route edges="-320586201 -26474376#0 26426123#14 320586200 1064390547 26431538 26426239#1 26426239#2 26426239#3 26426239#4 26426239#5 26426239#6 26426239#7 724597257 724025357 26491451 342747564 26434046#5 26434046#6 26434046#7 26434046#8 26434044#0 26434044#1 26492695#0 26492695#1 26492695#2 341194647#0 341194647#1 341194647#2 341194647#3 -343401924#1 -343401924#0 -337201210#1 -337201210#0 -1052257283 -1052257282 -343399160#5 -343399160#4 -343399160#3 -343399160#2 589157706#0 589157706#1 -589161310"/>
    </vehicle>
    <vehicle id="6" type="passenger" depart="370.00">
        <route edges="292872521#1 292872521#2 -26430660#14 -26430660#13 -26430660#12 -26430660#11 -26430660#10 -26430660#9 -26430660#8 -1009311370#1 -1009311370#0 -480601485#1 -480601485#0 -342938848#1 -342938848#0 -967506986#1 -967506986#0 26480562#0 26480562#1 26480562#2 26480562#3 1068833691 26430615#0 26430615#1 26430615#2 26430615#3 1060094403#0 1060094403#1 1060094403#2 1060094404#0 1060094404#1 1060094404#2 253472110#0 342931649#0 342931649#1 -342931649#1"/>
    </vehicle>
    <vehicle id="7" type="passenger" depart="432.00">
        <route edges="-343399161#3 -343399161#2 -343399162 343399160#1 343399160#2 343399160#3 343399160#4 343399160#5 343399160#6 343399163#0 343399163#1 26480562#3 1068833691 26430615#0 26430615#1 26430615#2 26430615#3 1060094403#0 1060094403#1 1060094403#2 1060094404#0 1060094404#1 1060094404#2 253472110#0 253472110#1 253472110#2 253472110#3 253472110#4 253471766 26491443#0 26491443#1 26430602"/>
    </vehicle>
    <vehicle id="8" type="passenger" depart="523.00">
        <route edges="1009311272#1 -342937011 -1068742186 26430615#2 26430615#3 360464157#0 360464157#1 360464157#2 26492695#0 26492695#1 26492695#2 341194647#0 341194647#1 341194647#2 341194647#3 341194647#4 341194647#5 341194647#6 341194647#7 341194647#8 341194647#9 26430671#0 26430671#1 26430671#2 26430671#3 1102161174#0 -337201172#2 337201223#0 337201223#1 1102161085 -1102161131#1 1102161131#1"/>
    </vehicle>
    <vehicle id="9" type="passenger" depart="529.00">
        <route edges="-26434200#10 26434200#10 26434200#11 26434200#12 26434200#13 26434200#14 26434200#15 26434200#16 26434200#17 26434200#18 26434200#19 26434200#20 26434200#21 -26445254#10 -26445254#9 -26434280#3 -26434280#2 -26434280#1 -26434280#0 26426239#4 26426239#5 26426239#6 26426239#7 724597257 724025357 26491451 342747564 26434046#5 26434046#6 26434046#7 26434046#8 26434044#0 26434044#1 26492695#0 26492695#1 26492695#2 341194647#0 341194647#1 341194647#2 341194647#3 -343401924#1 -343401924#0 -337201210#1 337201210#1 343401924#0"/>
    </vehicle>
    <vehicle id="10" type="passenger" depart="548.00">
        <route edges="-1041904398 1041904398 1041904399 1004935008 246802858#0 246802858#1 26430695#0 26430695#1 26430695#2 345428807#0 345428807#1 -345428808#2 -345428808#1 345426530#0 345426530#1 345426529#0 345426529#1 345426529#2 -1102167088 -1102164808 -345423908#0 -26430671#0 341194647#10 341194647#11 341194647#12 341194647#13 341194647#14 341194647#15 341194647#16 341194647#17 341194647#18 341194647#19 -26430660#16 -26430660#15 -26430660#14 -26430660#13 -26430660#12 -26430660#11 -26430660#10 1101521111#0 -1101521111#0"/>
    </vehicle>
    <vehicle id="11" type="passenger" depart="565.00">
        <route edges="26430695#0 26430695#1 26430695#2 345428807#0 345428807#1 -345428808#2 -345428808#1 345426530#0 345426530#1 345426529#0 345426529#1 345426529#2 -1102167088 -1102164808 -345423908#0 -26430671#0 341194647#10 341194647#11 341194647#12 341194647#13 341194647#14 341194647#15 341194647#16 341194647#17 341194647#18 341194647#19 -26430660#16 -26430660#15 -26430660#14 -26430660#13 -26430660#12 -26430660#11 -26430660#10 -26430660#9 -26430660#8 -1009311370#1"/>
    </vehicle>
    <vehicle id="12" type="passenger" depart="566.00">
        <route edges="-26455898#6 26455898#6 26455898#7 26455898#8 26455898#9 26455898#10 1011252736#0 1011252736#1 337201797#0 337201797#1 700545087#0 700545087#1 337201807#0"/>
    </vehicle>
    <vehicle id="13" type="passenger" depart="631.00">
        <route edges="26434260#1 26434260#2 835011188#3 835011188#4 835011188#5 -319301701#5 -319301701#4 -319301701#3 -319301701#2 -319301701#1 -319301701#0 -26434057 26426239#0 26426239#1 26426239#2 26426239#3 26426239#4 26426239#5 26426239#6 26426239#7 724597257 724025357 26491451 342747564 26434046#5 26434046#6 26434046#7 26434046#8 26434044#0 26434044#1 26492695#0 26492695#1 26492695#2 341194647#0 341194647#1 341194647#2 341194647#3 341194647#4 341194647#5 341194647#6 341194647#7 341194647#8 341194647#9 26430671#0 26430671#1 26430671#2 26430671#3 1102161174#0 -337201172#2 337201223#0 337201223#1 1102161085 -1102161131#1 -1102161131#0 26434599 245190149 246981481#0 246981481#1 246981481#2 997723330#0 997723330#1 997723330#2 -997723330#2"/>
    </vehicle>
    <vehicle id="14" type="passenger" depart="709.00">
        <route edges="-26434200#4 26434200#4 26434302#0 26434302#1 26434302#2 26434302#3 343219879#8 343219879#9 343219879#10 23035728 26431825#10 26431825#11 26432007#0 -26454094#4 -26454094#3 1037706042#0 1037706042#1 1037706043#0 1037706043#1 341199012#0 341199012#1 -341199012#1 -341199012#0 -1037706043#1 -1037706043#0"/>
    </vehicle>
    <vehicle id="15" type="passenger" depart="738.00">
        <route edges="-26434200#4 26434200#4 26434302#0 26434302#1 26434302#2 26434302#3 343219879#8 343219879#9 343219879#10 23035728 26431825#10 26431825#11 26432007#0 26432007#1 26432007#2 26432007#3 26432007#4 26432007#5 26432007#6 26434046#0 26434046#1 26434046#2 26434046#3 26434046#4 26434046#5 26434046#6 26434046#7 26434046#8 26434044#0 26434044#1 26492695#0 64893079#0 64893079#1 64893079#2 64893079#3"/>
    </vehicle>
    <vehicle id="16" type="passenger" depart="780.00">
        <route edges="-337195905#1 -337195905#0 -337422829#1 337422829#1 337195905#0 337195905#1 -834549008#1 -834549008#0 769745700#4 1101891712 337422786 -341197237#1 -341197237#0 -1006757133 -342932559#1 -342932559#0 -1002250352 -26455898#12 -26455898#11 -26455898#10 -26455898#9 -26455898#8 -26455898#7 -26455898#6 -26455898#5 -26455898#4 -26455898#3 -26455898#2 -26455898#1 -26455898#0 -1002056185 -1060094404#2 -1060094404#1 -1060094404#0 -1060094403#2 -1060094403#1 -1060094403#0 360464157#0 360464157#1 360464157#2 26492695#0 64893079#0 64893079#1"/>
    </vehicle>
    <vehicle id="17" type="passenger" depart="797.00">
        <route edges="-26434223#0 26434223#0 26434223#1 -319301701#1 -319301701#0 -26434057 26426239#0 26426239#1 26426239#2 26426239#3 26426239#4 26426239#5 26426239#6 26426239#7 724597257 724025357 26491451 342747564 26434046#5 26434046#6 26434046#7 26434046#8 26434044#0 26434044#1 26492695#0 26492695#1 26492695#2 26492695#3 26492695#4 26492695#5 26492695#6 26492695#7 1004935743 1004935016#0 1004935016#1 -1041904399 -1041904398 1041904394 26475494#0 -26475494#0"/>
    </vehicle>
    <vehicle id="18" type="passenger" depart="797.00">
        <route edges="995270846#1 337201226 995270849 345423624#4 345423624#5 345423624#6 1004935016#1 1004935008 246802858#0 246802858#1 26430695#0 26430695#1 26430695#2 345428807#0 345428807#1 -345428808#2 -345428808#1 345426530#0 345426530#1 345426529#0 345426529#1 345426529#2 1102160013#0 1102160013#1 26430668#0 26430668#1 26430668#2 26430668#3 26430666 929604644#0 929604644#1 928311165#0 928311165#1 64893034#0 64893034#1 26430615#1 26430615#2 26430615#3 1060094403#0 1060094403#1 1060094403#2 1060094404#0 1060094404#1 1060094404#2 1002056185 26455898#0 26455898#1 26455898#2 26455898#3 26455898#4 26455898#5 26455898#6 26455898#7 26455898#8 26455898#9 26455898#10 26455898#11 26455898#12 1002250352 342932559#0 342932559#1 1006757133 341197237#0 341197237#1 341197235#0 341197235#1 337422783 337422824 -350753793 -26536252#1 -26536252#0 -1037706103 -1037706042#0 26454094#3 26454094#4 26432007#1 26432007#2 26432007#3 26432007#4 26432007#5 26432007#6 26434046#0 26434046#1 342746332 343184088#0 343184088#1 343184088#2 724597252 1011411823 724597254#0 724597254#1 724597253#0 724597253#1 289705053#0 289705053#1 -478831594#2"/>
    </vehicle>
    <vehicle id="19" type="passenger" depart="829.00">
        <route edges="345427701#0 345427701#1 345427701#2 345426649 345426529#2 1102160013#0 1102160013#1 26430668#0 26430668#1 26430668#2 26430668#3 26430666 929604644#0 929604644#1 928311165#0 928311165#1 928311165#2 928311165#3 -1068833691 1009311272#0 1009311272#1 1009311272#2"/>
    </vehicle>
    <vehicle id="20" type="passenger" depart="851.00">
        <route edges="1102895487 1101887713 -337201787#0 -1002040180 -1068826427 -1002040123 -1080800709#1 -1080800709#0 -26454167#1 -26454167#0 -1002040077 -1080800708 -1002040008#1 -1002040008#0 26430660#0 26430660#1 26430660#2 26430660#3 26430660#4 26430660#5 254390209#0 254390209#1 254390209#2 254390209#3 254390209#4 254390209#5 -254390210#3 -254390210#2 -254390210#1 -254390210#0 -64894800#8 -64894800#7 -64894800#6 -64894800#5 -64894800#4 -64894800#3 64894800#3"/>
    </vehicle>
    <vehicle id="21" type="passenger" depart="856.00">
        <route edges="-26475396#1 -996017015 -993294617 -993911979 -26475423 337411384#3 -26475436#1 -26475436#0 345426530#0 345426530#1 345426529#0 345426529#1 345426529#2 1102160013#0 1102160013#1 26430668#0 26430668#1 26430668#2 26430668#3 26430666 929604644#0 929604644#1 928311165#0 928311165#1 64893034#0 64893034#1 26430615#1 26430615#2 26430615#3 1060094403#0 1060094403#1 1060094403#2 1060094404#0 1060094404#1 1060094404#2 1002056185 26455898#0 26455898#1 26455898#2 26455898#3 26455898#4 26455898#5 26455898#6 26455898#7 26455898#8 26455898#9 26455898#10 26455898#11 26455898#12 1002250352 342932559#0 342932559#1 1006757133 341197237#0 341197237#1 341197235#0 341197235#1 337422783 337422824 -350753793 -26536252#1 -26536252#0 -1037706103 -1037706042#0 26454094#3 26454094#4 26432007#1 26432007#2 26432007#3 26432007#4 26432007#5 26432007#6 26434046#0 26434046#1 342746332 343184088#0 343184088#1 343184088#2 724597252 1099844081#0 1099844081#1 1099844081#2 26425866#0 26425866#1 26425866#2 26425866#3 1024135641 289705481 1024135637#0 1024135637#1 360777176#4 360777176#0 371350540 -289691812#5 -289691812#4 -289691812#3 -289691812#2 -289691812#1 -289691812#0 26426123#4 -334419705#5 -334419705#4 -334419705#3 -334419705#2 334419705#2"/>
    </vehicle>
    <vehicle id="22" type="passenger" depart="899.00">
        <route edges="26430660#8 -26430660#8 -26430660#7 -26430660#6 -26430660#5 -26430660#4 -26430660#3 -26430660#2 -26430660#1 -26430660#0 1002040008#0 1002040008#1 1080800708 1002040077 26454167#0 26454167#1 1080800709#0 1080800709#1 1002040123 1068826427 1002040180 337201787#0 -1101887713 -1102895487 -1091669668 341197237#1 341197235#0 341197235#1 337422783 337422824 -350753793 -26536252#1 -26536252#0 -1037706103 -1037706042#0 26454094#3 26454094#4 26432007#1 26432007#2 26432007#3 26432007#4 26432007#5 26432007#6 26434046#0 26434046#1 342746332 343184088#0 343184088#1 343184088#2 724597252 1011411823 1011411824 724597257 26430484#0 26430484#1 26434340#0 26434340#1 26434331#1 26434331#2 26434331#3 26434200#21 -26445254#10 -26445254#9 -26445254#8 -26445254#7 -26445254#6 -26445254#5 -26445254#4 -26445254#3"/>
    </vehicle>
    <vehicle id="23" type="passenger" depart="905.00">
        <route edges="1102387148#1 350895162#4 1102911709#0 1102911709#1 1102911709#2 1102911709#3 1102911709#4 1009311542 1009311543 1002040180 337201787#0 -1101887713 -1102895487 -1091669668 341197237#1 341197235#0 341197235#1 337422783 337422824 -350753793 -26536252#1 -26536252#0 -1037706103 -1037706042#0 26454094#3 26454094#4 26432007#1 26432007#2 26432007#3 26432007#4 26432007#5 26432007#6 26434046#0 26434046#1 342746332 343184088#0 343184088#1 343184088#2 724597252 1011411823 724597254#0 724597254#1 724597253#0 724597253#1 289705053#0 289705053#1 478831594#3 478831594#4"/>
    </vehicle>
    <vehicle id="24" type="passenger" depart="947.00">
        <route edges="337195911#1 337195911#2 337195911#3 337195911#4 1102893636#0 1102893636#1 1102893636#2 1102893652 1102893678 1102893679#0 1102893679#1 319016545#0 319016545#1 319016545#2 1102893689 1102893681 1102893690 1101887549#0 1101887549#1 1101887549#2 1102911709#3 1102911709#4 1009311542 1009311543 -1068826427 -1002040123 -1080800709#1 -1080800709#0 -26454167#1 -26454167#0 -1002040077 -1080800708 -1002040008#1 -1002040008#0 26430660#0 26430660#1 26430660#2 26430660#3 26430660#4 26430660#5 254390209#0 254390209#1 254390209#2 254390209#3 254390209#4 254390209#5 -254390210#3 -254390210#2 -254390210#1 -254390210#0 -64894800#8 -64894800#7 -64894800#6"/>
    </vehicle>
    <vehicle id="25" type="passenger" depart="961.00">
        <route edges="26434203#0 -26434203#0 343219879#6 343219879#7 343219879#8 343219879#9 343219879#10 23035728 26431825#10 26431825#11 26432007#0 26432007#1 26432007#2 238000908#0 238000908#1 238000908#2 238000908#3 238000908#4 238000908#5 238000908#6 238000908#7 238000908#8 -341197235#0 -341197237#1 1091669668 1102895487 1101887713 -337201787#0 -1002040180 -1009311543 -1009311542 -1102911709#4 1009348926#0 1009348926#1 1009348926#2 1009348926#3 1009348927#0 1009348927#1 1009348927#2 1035770594"/>
    </vehicle>
    <vehicle id="26" type="passenger" depart="1011.00">
        <route edges="26536252#0 -26536252#0 -1037706103 -1037706042#0 26454094#3 26454094#4 26432007#1 26432007#2 26432007#3 26432007#4 26432007#5 26432007#6 26434046#0 26434046#1 342746332 343184088#0 343184088#1 343184088#2 724597252 1011411823 1011411824 724597257 26430484#0 26430484#1 26434340#0 26434340#1 26434331#1 26434331#2 26434331#3 -26434200#20 -26434200#19 -26434200#18 -26434200#17 -26434200#16 -26434200#15 -254572875#1 -26434326#1"/>
    </vehicle>
    <vehicle id="27" type="passenger" depart="1026.00">
        <route edges="-1002040008#1 -1002040008#0 1002040008#0 1002040008#1 1080800708 1002040077 26454167#0 26454167#1 1080800709#0 1080800709#1 1002040123 1068826427 1002040180 337201787#0 -1101887713 -1102895487 -1091669668 341197237#1 341197235#0 341197235#1 337422783 337422824 -350753793 -26536252#1 -26536252#0 -1037706103 -1037706042#0 26454094#3 26454094#4 26432007#1 26432007#2 26432007#3 26432007#4 26432007#5 26432007#6 26434046#0 26434046#1 342746332 343184088#0 343184088#1 343184088#2 724597252 1011411823 1011411824 724597257 26430484#0 26430484#1 26434340#0 26434340#1 26434331#1 26434331#2 26434331#3 -26434200#20 -26434200#19 -26434200#18 -26434200#17 -26434200#16 -26434200#15 -26434200#14 -26434200#13 -26434200#12 -26434200#11 -26434200#10 -26434200#9 -26434200#8 -26434200#7 -26434200#6 -26434200#5 -26434200#4 26434247#0 26434247#1 26434247#2 26434188#5"/>
    </vehicle>
    <vehicle id="28" type="passenger" depart="1034.00">
        <route edges="-342897018#0 26432007#2 26432007#3 26432007#4 26432007#5 26432007#6 26434046#0 26434046#1 26434046#2 26434046#3 26434046#4 26434046#5 26434046#6 26434046#7 26434046#8 26434044#0 26434044#1 26492695#0 26492695#1 26492695#2 341194647#0 341194647#1 341194647#2 341194647#3 -343401924#1 -343401924#0 -337201210#1 -337201210#0 -1052257283 -1052257282 -343399160#5 -935271292 292872519#1 292872519#2 -292872520#1"/>
    </vehicle>
    <vehicle id="29" type="passenger" depart="1074.00">
        <route edges="334416633#0 26430330#1 26430330#2 240481194#2 240481194#3 240481194#4 240481194#5 240481194#6 240481194#7 26480555 723885760#0 723885760#1 26434056#0 26434056#1 26426239#1 26426239#2 26426239#3 26426239#4 26426239#5 26426239#6 26426239#7 724597257 724025357 26491451 342747564 26434046#5 26434046#6 26434046#7 26434046#8 26434044#0 26434044#1 26492695#0 26492695#1 26492695#2 341194647#0 341194647#1 341194647#2 341194647#3 341194647#4 341194647#5 341194647#6 341194647#7 341194647#8 341194647#9 341194647#10 341194647#11 341194647#12 341194647#13 341194647#14 341194647#15 341194647#16 341194647#17 341194647#18 341194647#19 -26430660#16 -26430660#15 -26430660#14 -26430660#13 967519729#0 967519729#1 967519729#2 967519727#2"/>
    </vehicle>
    <vehicle id="30" type="passenger" depart="1074.00">
        <route edges="1004935016#0 1004935016#1 1004935008 246802858#0 246802858#1 26430695#0 26430695#1 26430695#2 345428807#0 345428807#1 -345428808#2 -345428808#1 345426530#0 345426530#1 345426529#0 345426529#1 345426529#2 -1102167088 -1102164808 -345423908#0 -26430671#0 341194647#10 341194647#11 341194647#12 341194647#13 341194647#14 341194647#15 341194647#16 341194647#17 341194647#18 341194647#19 -26430660#16 -26430660#15 -26430660#14 -26430660#13 -26430660#12 -26430660#11 -26430660#10 -26430660#9 -26430660#8 -26430660#7 -26430660#6 254390209#0 254390209#1 254390209#2 254390209#3 254390209#4 254390209#5 -254390210#3 -254390210#2 -254390210#1 -254390210#0 -64894800#8 -64894800#7 -64894800#6 -64894800#5 -64894800#4 -64894800#3 -64894800#2 -64894800#1 -64894800#0 64894800#0"/>
    </vehicle>
    <vehicle id="31" type="passenger" depart="1079.00">
        <route edges="253472110#3 253472110#4 253471766 26491443#0 26491443#1 341197236 1092538587#0 1092538587#1 1006757102#0 1006757102#1 1006757102#2 1006757133 341197237#0 341197237#1 341197235#0 341197235#1 337422783 337422824 -350753793 -26536252#1 -26536252#0 -1037706103 -1037706042#0 26454094#3 26454094#4 26432007#1 26432007#2 26432007#3 26432007#4 26432007#5 26432007#6 26434046#0 26434046#1 342746332 343184088#0 343184088#1 343184088#2 724597252 1011411823 1011411824 724597257 26430484#0 26430484#1 26434340#0 26434340#1 26434331#1 26434331#2 26434331#3 26434200#21 -26445254#10 -26445254#9 -26434280#3 -26434280#2 342744823#0"/>
    </vehicle>
    <vehicle id="32" type="passenger" depart="1106.00">
        <route edges="1102893678 1102893679#0 1102893679#1 319016545#0 319016545#1 319016545#2 1102893689 1102893681 1102893690 1101887549#0 1101887549#1 1101887549#2 1102911709#3 1102911709#4 1009311542 1009311543 -1068826427 -1002040123 -1080800709#1 -1080800709#0 -26454167#1 1052404519#0 1052404519#1 1052404520 341196664#1 341196663 1009311590#1 1009311591#0 1009311591#1 -26536242#2 -26536242#1 -26536242#0 26536242#0 26536242#1"/>
    </vehicle>
    <vehicle id="33" type="passenger" depart="1132.00">
        <route edges="26445222#1 26445222#2 -26434162#6 -26434162#5 -26434162#4 -26434162#3 -26434162#2 -26434162#1 -26434162#0 26434200#2 -342925627 -342925626#0"/>
    </vehicle>
    <vehicle id="34" type="passenger" depart="1170.00">
        <route edges="-1002040317#0 -1002040318 -700545088 -337201797#3 -337201797#2 -337201797#1 -337201797#0 1023301368#0 1023301368#1 1035338524#0 1035338524#1 1035338524#2 1035338525#0 1035338525#1 26536164#0 26536164#1 -26536221#3 -26536221#2 -26536221#1 -26536221#0 -1007059621#1 -1007059621#0 1007059621#0"/>
    </vehicle>
    <vehicle id="35" type="passenger" depart="1190.00">
        <route edges="1024135640#3 1024135640#4 1024135640#5 1011411824 724597257 26430484#0 26430484#1 26434340#0 26434340#1 26434331#1 26434331#2 26434331#3 -26434200#20 -26434200#19 -26434200#18 -26434200#17 -26434200#16 -26434200#15 -26434200#14 -26434200#13 -26434200#12 -26434200#11 -26434200#10 -26434200#9 -26434200#8 -26434200#7 -26434200#6 -26434200#5 -26434200#4 -26434200#3 -26434200#2 -26434200#1 -26434200#0 26491368#7 26491368#8 26491368#9 600383037 26431825#5 26431825#6 26491390#0 26491390#1 26491390#2"/>
    </vehicle>
    <vehicle id="36" type="passenger" depart="1272.00">
        <route edges="337196008 -337195915#3 -337195915#2 -337195915#1 -337195915#0 -337422794#0 -337422804 -341197235#2 -341197235#1 -341197235#0 -341197237#1 1091669668 1102895487 1101887713 -337201787#0 -1002040180 -1068826427 -1002040123 -1080800709#1 -1080800709#0 -26454167#1 -26454167#0 -1002040077 -1080800708 -1002040008#1 -1002040008#0 -64894843#1 -64894843#0 -64894847#5 -64894847#4 -64894847#3 1039988446#0 1039988446#1 -1039988446#1 -1039988446#0"/>
    </vehicle>
    <vehicle id="37" type="passenger" depart="1303.00">
        <route edges="1007050014 1007050015 342943910#0 342943910#1 -1009311177 -337201176#1 -337201176#0 26536221#1 26536221#2 26536221#3 -26536164#1 -1002040491 -26536169 26455898#5 26455898#6 26455898#7 26455898#8 26455898#9 26455898#10 26455898#11 26455898#12 1002250352 342932559#0 342932559#1 1006757133 341197237#0 341197237#1 341197235#0 341197235#1 337422783 337422824 -350753793 -26536252#1 -26536252#0 -1037706103 -1037706042#0 26454094#3 26454094#4 26432007#1 26432007#2 26432007#3 26432007#4 26432007#5 26432007#6 26434046#0 26434046#1 342746332 343184088#0 343184088#1 343184088#2 724597252 1011411823 1011411824 724597257 26430484#0 26430484#1 26434340#0 26434340#1 26434331#1 26434331#2 26434331#3 -26434200#20 -26434200#19 -26434200#18 -26434200#17 -26434200#16 -26434200#15 -26434200#14 -26434200#13 -26434200#12 -26434200#11 -26434200#10 -26434200#9 -26434200#8 -26434200#7 26434203#2 342908419 -26434188#7"/>
    </vehicle>
    <vehicle id="38" type="passenger" depart="1431.00">
        <route edges="26434280#4 -26434280#4 -26434280#3 -26434280#2 -26434280#1 -26434280#0 26426239#4 26426239#5 26426239#6 26426239#7 724597257 724025357 26491451 342747564 26434046#5 26434046#6 26434046#7 26434046#8 26434044#0 26434044#1 26492695#0 26492695#1 26492695#2 341194647#0 341194647#1 341194647#2 341194647#3 341194647#4 341194647#5 341194647#6 341194647#7 341194647#8 341194647#9 26430671#0 26430671#1 26430671#2 26430671#3 1102161174#0 -337201172#2 337201223#0 337201223#1 1102161085 -1102161131#1 -1102161131#0 26434599 245190149 246981481#0 246981481#1 246981481#2 997723330#0 997723330#1 -997723330#1 -997723330#0 -246981481#2 -246981481#1"/>
    </vehicle>
    <vehicle id="39" type="passenger" depart="1442.00">
        <route edges="-1087034740 1087034740 -337201787#3 -337201787#2 -337201787#1 -1101887713 -1102895487 -1091669668 341197237#1 341197235#0 341197235#1 337422783 337422824 -350753793 -26536252#1 -26536252#0 -1037706103 -1037706042#0 26454094#3 26454094#4 26432007#1 26432007#2 26432007#3 26432007#4 26432007#5 26432007#6 26434046#0 26434046#1 342746332 343184088#0 343184088#1 343184088#2 724597252 1099844081#0 1099844081#1 1099844081#2 26425866#0 26425866#1 26425866#2 26425866#3 1024135641 1024135642#0 1024135642#1 1024135642#2 342952635#0 342952635#1 342952635#2 1099843695 1099843696 342952636#0 342952636#1"/>
    </vehicle>
    <vehicle id="40" type="passenger" depart="1492.00">
        <route edges="26434203#2 -26434203#2 -26434203#1 -26434203#0 343219879#6 343219879#7 343219879#8 343219879#9 343219879#10 23035728 26431825#10 26431825#11 26432007#0 26432007#1 26432007#2 26432007#3 26432007#4 26432007#5 26432007#6 26434046#0 26434046#1 26434046#2 26434046#3 26434046#4 26434046#5 26434046#6 26434046#7 26434046#8 26434044#0 26434044#1 26492695#0 26492695#1 26492695#2 26492695#3 26492695#4 26492695#5 26492695#6 26492695#7 1004935743 1004935016#0 1004935016#1 -1041904399"/>
    </vehicle>
    <vehicle id="41" type="passenger" depart="1543.00">
        <route edges="-315621708#7 315621708#7 337878516#1 337878516#2 337878517#0 337878517#1 -289691812#6 -289691812#5 -289691812#4 -289691812#3 -700535902#2 342951645#0"/>
    </vehicle>
    <vehicle id="42" type="passenger" depart="1580.00">
        <route edges="-337195887#0 -337422794#3 -337422794#2 -337422794#1 -337422794#0 -337422804 -341197235#2 -341197235#1 -341197235#0 -341197237#1 -341197237#0 -1006757133 -342932559#1 -342932559#0 -1002250352 -26455898#12 -26455898#11 -26455898#10 -26455898#9 -26455898#8 -26455898#7 -26455898#6 -26455898#5 -26455898#4 -26455898#3 -26455898#2 -26455898#1 -26455898#0 -1002056185 -1060094404#2 -1060094404#1 -1060094404#0 -1060094403#2 -1060094403#1 -1060094403#0 360464157#0 360464157#1 360464157#2 26492695#0 26492695#1 26492695#2 341194647#0 341194647#1 341194647#2 341194647#3 341194647#4 341194647#5 341194647#6 341194647#7 341194647#8 341194647#9 341194647#10 341194647#11 -337201178#2 -337201178#1 -343401090"/>
    </vehicle>
    <vehicle id="43" type="passenger" depart="1642.00">
        <route edges="-26434193#2 26434193#2 -26434247#1 -26434247#0 26434200#4 26434302#0 26434302#1 26434302#2 26434302#3 343219879#8 343219879#9 343219879#10 23035728 26431825#10 26431825#11 26432007#0 26432007#1 26432007#2 26432007#3 26432007#4 26432007#5 26432007#6 26434046#0 26434046#1 26434046#2 26434046#3 26434046#4 26434046#5 26434046#6 26434046#7 26434046#8 26430592#0 26430592#1 26430592#2 -26430615#3 -26430615#2 1068742186 342937011 1009311272#2 1009311272#3 246800572 1002038419#2 1080800647 1080800648 26475271 26430660#1 26430660#2 26430660#3"/>
    </vehicle>
    <vehicle id="44" type="passenger" depart="1678.00">
        <route edges="928311165#3 26430615#0 26430615#1 26430615#2 64893153#0 64893153#1 -64893153#1"/>
    </vehicle>
    <vehicle id="45" type="passenger" depart="1778.00">