<?xml version="1.0" encoding="UTF-8"?>

<!-- generated on 2024-10-20 15:32:50.048487 by randomTrips.py v1_19_0+0000-baa66a0f364
<configuration>
    <net-file value="C:\Users\MONSTER\Documents\GitHub\SUMOScripts\SUMO-1\my_data2\osm\YeniSehir.net.xml"/>
    <output-trip-file value="C:\Users\MONSTER\Documents\GitHub\SUMOScripts\SUMO-1\my_data2\osm\YeniSehir_trips.xml"/>
    <vehicle-class value="passenger"/>
    <random value="True"/>
    <validate value="True"/>
    <period value="36.0"/>
    <random-depart value="True"/>
</configuration>
-->

<!-- generated on 2024-10-20 15:32:49 by Eclipse SUMO duarouter Version 1.19.0
<configuration xmlns:xsi="http://www.w3.org/2001/XMLSchema-instance" xsi:noNamespaceSchemaLocation="http://sumo.dlr.de/xsd/duarouterConfiguration.xsd">

    <input>
        <net-file value="C:\Users\MONSTER\Documents\GitHub\SUMOScripts\SUMO-1\my_data2\osm\YeniSehir.net.xml"/>
        <route-files value="C:\Users\MONSTER\Documents\GitHub\SUMOScripts\SUMO-1\my_data2\osm\YeniSehir_trips.xml"/>
    </input>

    <output>
        <output-file value="routes.rou.xml"/>
        <alternatives-output value="NUL"/>
    </output>

    <time>
        <begin value="0.0"/>
        <end value="3600.0"/>
    </time>

    <report>
        <no-warnings value="true"/>
        <ignore-errors value="true"/>
        <no-step-log value="true"/>
    </report>

</configuration>
-->

<routes xmlns:xsi="http://www.w3.org/2001/XMLSchema-instance" xsi:noNamespaceSchemaLocation="http://sumo.dlr.de/xsd/routes_file.xsd">
    <vType id="passenger" vClass="passenger"/>
    <vehicle id="0" type="passenger" depart="33.00">
        <route edges="-907034606#7 907034606#7 907034606#8 907034606#9 -191955185#12 -191955185#11 -191955185#10 -191955185#9 -191955185#8 -191955185#7 -191955185#6 -191955185#5 -191955185#4 191955259#0 191955259#1 191955259#2 191955259#3 191955207 -191955207"/>
    </vehicle>
    <vehicle id="1" type="passenger" depart="55.00">
        <route edges="-508112256#1 -508112256#0 907034606#7 907034606#8 907034606#9 -191955185#12 -191955185#11 -191955185#10 -191955185#9 -191955185#8 -191955185#7 -191955185#6 -191955185#5 -191955185#4 -191955185#3 -191955185#2 -191955185#1 -191955185#0 191955186#0 191955186#1 191955183#1 -191955184#3 -191955184#2 -750051983#3 -750051983#2 -750051983#1 -750051983#0"/>
    </vehicle>
    <vehicle id="2" type="passenger" depart="57.00">
        <route edges="191955182#1 191955182#2 191955188#2 191955183#0 191955183#1 -191955184#3 -191955184#2 -750051983#3 -750051983#2 -750051983#1 -360120733#3 -360120733#2 -360120733#1"/>
    </vehicle>
    <vehicle id="3" type="passenger" depart="95.00">
        <route edges="360124088#2 360124088#3 -365267572#2 -365267572#1 191955188#1 191955178 -664871903#13 -664871903#12 -664871903#11 -664871903#10 -664871903#9 -664871903#8 -664871903#7 -664871903#6 -1290639456#10 -1290639456#9 -1290639456#8 -1290639456#7 -1290639456#6 -1290639456#5 -1290639456#4 -1290639456#3 -1290639456#2 -1290639456#1 -1290639456#0 -1290639457 -312136345#2 -312136345#1 -312136345#0"/>
    </vehicle>
    <vehicle id="4" type="passenger" depart="102.00">
        <route edges="-360123235#1 -360123235#0 360121195#0 360121195#1 360121195#2 360121195#3 360121195#4 360121195#5 360121195#6 360121195#7 360121195#8 360121195#9 360121195#10 -360121196#1 -360118409#4 -360118409#3 -360118409#2 -360118409#1 -360118409#0 -360121192#2 -360121192#1 -664871903#6 -664871903#5 -664871903#4 -664871903#3 -664871903#2 664871903#2"/>
    </vehicle>
    <vehicle id="5" type="passenger" depart="149.00">
        <route edges="-365267572#1 191955188#1 191955188#2 50556992#0 -1162664417 -191955196#1 -191955196#0 -191955224#10 -191955224#9 -191955224#8 -191955224#7 -191955224#6 -191955224#5 -191955224#4 -191955224#3 -191955224#2 -191955224#1 191955200#0 -191955200#0"/>
    </vehicle>
    <vehicle id="6" type="passenger" depart="174.00">
        <route edges="360121203#1 360121202#2 -365267564#1 -365267564#0 -508094746#4 -508094746#3 -508094746#2 -508094746#1 -508094746#0 -360123253#2 -360123253#1 -360123253#0 360123251#0 360123251#1 360123251#2 365266462#0 365266462#1 365266460#4"/>
    </vehicle>
    <vehicle id="7" type="passenger" depart="209.00">
        <route edges="-360124089 -191955184#2 -750051983#3 -750051983#2 -750051983#1 -750051983#0 360120734#0 360120734#1 365277562#0 365277562#1 365277562#2 365277562#3 365277562#4"/>
    </vehicle>
    <vehicle id="8" type="passenger" depart="225.00">
        <route edges="-1149552485 360120741#4 360120741#5 -360120742#3 -360120742#2 -360120742#1 -360120746#1"/>
    </vehicle>
    <vehicle id="9" type="passenger" depart="315.00">
        <route edges="360124099 -1290639456#5 -1290639456#4 -1290639456#3 -360124100#1 -360124100#0 360123247#0 360123247#1 360123247#2 360123247#3 -365266451#6 -365266451#5 -365266451#4 -365266451#3 -365266451#2 -365266451#1 -365266451#0 -360123248#1 -360123248#0"/>
    </vehicle>
    <vehicle id="10" type="passenger" depart="387.00">
        <route edges="360118412#2 360118412#3 360118412#4 360118412#5 664871903#8 664871903#9 664871903#10 664871903#11 664871903#12 664871903#13 191955179 191955183#0 191955187#0 191955187#1 191955187#2 191955187#3 -508094746#7 -508094746#6 -508094746#5 -508094746#4 -508094746#3 -508094746#2 -508094746#1 -508094746#0 -360123253#2 -360123253#1 -360123253#0 360123251#0 360123251#1 360123251#2 -458089326#1 -1149552487#7 -1149552487#6 -1149552487#5 1167735242"/>
    </vehicle>
    <vehicle id="11" type="passenger" depart="393.00">
        <route edges="508128873 191955195#2 191955224#6 191955224#7 191955224#8 191955224#9 191955224#10 191955224#11 191955224#12 191955184#2 191955184#3 191955182#0 191955182#1 191955182#2 191955178 -664871903#13 -664871903#12 -360118407#3 -360118407#2 -360118407#1 -360118407#0 360121200#0 360121200#1 -360121200#1"/>
    </vehicle>
    <vehicle id="12" type="passenger" depart="400.00">
        <route edges="-191955262#6 191955262#6 191955262#7 191955262#8 191955262#9 360114360#4 360114360#5"/>
    </vehicle>
    <vehicle id="13" type="passenger" depart="467.00">
        <route edges="360124078#4 360124078#5 360124078#6 360124078#7 -360120734#4 -360120734#3 -360120734#2 -360120734#1 -360120734#0 750051983#0 750051983#1 750051983#2 750051983#3 191955184#2 191955184#3 191955182#0 191955182#1 191955182#2 191955188#2 50556992#0 50556992#1 191955185#0 191955185#1 191955185#2 191955185#3 191955259#0 360114360#0 360114360#1"/>
    </vehicle>
    <vehicle id="14" type="passenger" depart="488.00">
        <route edges="-1290639456#5 1290639456#5 1290639456#6 1290639456#7 1290639456#8 1290639456#9 1290639456#10 664871903#6 664871903#7 664871903#8 664871903#9 664871903#10 664871903#11 664871903#12 664871903#13 191955179 191955183#0 191955187#0 191955187#1 191955187#2 191955187#3 -508094746#7 -508094746#6 -508094746#5 -508094746#4 -508094746#3 -508094746#2 -508094746#1 -508094746#0 -360123253#2 -360123253#1 -360123253#0"/>
    </vehicle>
    <vehicle id="15" type="passenger" depart="532.00">
        <route edges="-360123248#2 -360123248#1 -360123248#0 360123256 1164004955#1 360123258#0 360123258#1 360123253#0 360123253#1 360123253#2 508094746#0 508094746#1 508094746#2 508094746#3 508094746#4 508094746#5 508094746#6 508094746#7 191955188#0 191955188#1 191955188#2 50556992#0 -1162664417 -191955196#1 -191955196#0 -191955224#10 -191955224#9 -191955224#8 -191955224#7 -191955224#6 -191955224#5 -191955224#4 -191955224#3 -191955224#2 -191955224#1 -191955224#0 -191955214 -219397239#4 -219397239#3 -219397239#2 -219397239#1 -191955239#1 -191955239#0 -191955232"/>
    </vehicle>
    <vehicle id="16" type="passenger" depart="560.00">
        <route edges="-1149552485 -360120741#3 360120744#0 360120744#1 360120744#2 360120744#3 664871903#5 664871903#6 664871903#7 664871903#8 664871903#9 664871903#10 664871903#11 664871903#12 360121197#0 360121197#1 360121197#2 360121198#0 360121198#1 -365267565#1 -365267565#0 360121203#1"/>
    </vehicle>
    <vehicle id="17" type="passenger" depart="654.00">
        <route edges="360123235#3 1290639457 1290639456#0 1290639456#1 1290639456#2 1290639456#3 1290639456#4 1290639456#5 1290639456#6 1290639456#7 1290639456#8 1290639456#9 1290639456#10 664871903#6 664871903#7 664871903#8 664871903#9 664871903#10 664871903#11 664871903#12 664871903#13 191955179 50556992#0 -1162664417 -191955196#1 -458089340#13 -458089340#12 -458089340#11 -458089340#10 -458089340#9 -458089340#8 -458089340#7 -458089340#6 -458089340#5 -458089340#4 1167778453#0 -1167778454#0"/>
    </vehicle>
    <vehicle id="18" type="passenger" depart="714.00">
        <route edges="-508112254#0 -360120739#0 -907034606#1 -907034606#0 -1290639455#6 -1290639455#5 -1290639455#4 -1290639455#3 -1290639455#2 360121192#0 360121192#1 360121192#2 360118409#0 360118409#1 360118409#2 360118409#3 360118409#4 360121196#1 -360121195#10 -360121195#9 -360121195#8 -360121195#7 -360121195#6 -360121195#5"/>
    </vehicle>
    <vehicle id="19" type="passenger" depart="717.00">
        <route edges="-191955257#0 360118412#2 360118412#3 360118412#4 360118412#5 664871903#8 664871903#9 664871903#10 664871903#11 664871903#12 664871903#13 191955179 191955183#0 191955183#1 -191955184#3 -191955184#2 -750051983#3 -750051983#2 -750051983#1 -360120733#3 -360120733#2"/>
    </vehicle>
    <vehicle id="20" type="passenger" depart="764.00">
        <route edges="-508112250 -191955195#4 -191955195#3 191955224#6 191955224#7 191955224#8 191955224#9 191955224#10 191955224#11 191955224#12 -750051983#3 -750051983#2 -750051983#1 -750051983#0 360120734#0 360120734#1 360120734#2 360120734#3 360120734#4 360120734#5 360120734#6 -360124081#4 -360124081#3 360124079#7 360124108#4"/>
    </vehicle>
    <vehicle id="21" type="passenger" depart="847.00">
        <route edges="191955237#0 191955237#1 458089340#3 458089340#4 458089340#5 458089340#6 360123228#0 -360123228#0"/>
    </vehicle>
    <vehicle id="22" type="passenger" depart="871.00">
        <route edges="-191955262#9 191955262#9 -360114360#3 -360123231#1 -360123231#0 191955185#6 379053386#0 -907034606#4 -907034606#3 -907034606#2 -907034606#1 -907034606#0 -1290639455#6 -1290639455#5 360120741#0 360120741#1 360120741#2 360120741#3 360120741#4 360120741#5 360120742#4"/>
    </vehicle>
    <vehicle id="23" type="passenger" depart="910.00">
        <route edges="-508094746#2 508094746#2 508094746#3 508094746#4 508094746#5 508094746#6 508094746#7 191955188#0 191955188#1 191955188#2 50556992#0 -1162664417 -191955196#1 -191955196#0 -191955224#10 -191955224#9 -191955224#8 -191955224#7 -191955224#6 -191955224#5"/>
    </vehicle>
    <vehicle id="24" type="passenger" depart="916.00">
        <route edges="-1162664417 191955186#1 191955187#0 191955182#2 191955178 -664871903#13 -664871903#12 -664871903#11 -664871903#10 -664871903#9 -664871903#8 -664871903#7 -664871903#6 -664871903#5 -664871903#4 360120742#0 360120742#1 360120742#2 360120742#3 -360120741#5 -360120741#4"/>
    </vehicle>
    <vehicle id="25" type="passenger" depart="919.00">
        <route edges="360118409#4 -360118409#4 -360118409#3 -360118409#2 -360118409#1 -360118409#0 -360121192#2 -360121192#1 664871903#7 664871903#8 664871903#9 664871903#10 664871903#11 664871903#12 664871903#13 191955179 191955183#0 191955183#1 -191955184#3 -191955184#2 -191955224#12 -191955224#11 -191955224#10"/>
    </vehicle>
    <vehicle id="26" type="passenger" depart="983.00">
        <route edges="-508112259 191955224#8 191955224#9 191955224#10 191955224#11 191955224#12 191955184#2 191955184#3 191955182#0 191955182#1 191955182#2 191955178 -664871903#13 -664871903#12 -664871903#11 -664871903#10 360118413#0 360118419#1 -360118420#0"/>
    </vehicle>
    <vehicle id="27" type="passenger" depart="1004.00">
        <route edges="360123243#3 -360123243#3 -360123243#2 -365266446 -365266444#1 -365266444#0 365266440#5 -365266442#1 365267561 508094746#4 508094746#5 -360124092#9 -360124092#8 -360124092#7 -360124092#6 -360124092#5 -360124092#4 -360124092#3 -360124092#2 -360124092#1 360114988#2"/>
    </vehicle>
    <vehicle id="28" type="passenger" depart="1029.00">
        <route edges="-360123229#2 -360123229#1 -360123229#0 -340130275#0 -191955262#4 -191955262#3 -191955262#2"/>
    </vehicle>
    <vehicle id="29" type="passenger" depart="1041.00">
        <route edges="-664871903#7 664871903#7 664871903#8 664871903#9 664871903#10 664871903#11 664871903#12 664871903#13 191955179 191955183#0 191955187#0 191955187#1 191955187#2 191955187#3 -508094746#7 -508094746#6 -508094746#5 -508094746#4 -508094746#3 -508094746#2 -508094746#1 -508094746#0 -360123253#2 360124094#0"/>
    </vehicle>
    <vehicle id="30" type="passenger" depart="1106.00">
        <route edges="-191955224#6 191955224#6 191955224#7 191955224#8 191955224#9 191955224#10 191955224#11 191955224#12 -750051983#3 -750051983#2 750051983#2"/>
    </vehicle>
    <vehicle id="31" type="passenger" depart="1149.00">
        <route edges="-360124085#1 -360124085#0 360124083#1 -360124084#0 360124092#4 360124092#5 360124092#6 360124092#7 360124092#8 360124092#9 508094746#6 508094746#7 191955188#0 191955188#1 191955178 -664871903#13 -664871903#12 -360118407#3 -360118407#2 360118407#2"/>
    </vehicle>
    <vehicle id="32" type="passenger" depart="1273.00">
        <route edges="324652637#3 324652637#4 191955177#0 191955177#1 191955184#0 191955184#1 191955184#2 191955184#3 191955182#0 191955182#1 191955187#1 191955187#2 191955187#3 -508094746#7 -508094746#6 -360124092#9"/>
    </vehicle>
    <vehicle id="33" type="passenger" depart="1292.00">
        <route edges="-365266451#4 365266451#4 365266451#5 365266451#6 -360123243#3 -360123243#2 -360123243#1 -360123243#0 -360121198#2 -360121198#1 -360121198#0 -360121197#2 -360121197#1 -360121197#0 -664871903#12 -664871903#11 -664871903#10 -664871903#9 -664871903#8 -664871903#7 -664871903#6 -664871903#5 -664871903#4 360120742#0 360120742#1 360120742#2 360120742#3"/>
    </vehicle>
    <vehicle id="34" type="passenger" depart="1333.00">
        <route edges="-360121192#2 -360121192#1 664871903#7 664871903#8 664871903#9 664871903#10 664871903#11 664871903#12 664871903#13 191955179 191955183#0 191955187#0 191955187#1 191955187#2 191955187#3 -508094746#7 -508094746#6 -508094746#5 -508094746#4 -508094746#3 -508094746#2 508094746#2"/>
    </vehicle>
    <vehicle id="35" type="passenger" depart="1357.00">
        <route edges="-360124081#1 360124081#1 360124081#2 360124081#3 360124081#4 360120734#7 360120734#8 360120734#9 360120734#10 360123253#1 360123253#2 508094746#0 508094746#1 508094746#2 508094746#3 508094746#4 508094746#5 508094746#6 508094746#7 191955188#0 191955188#1 191955188#2 50556992#0 50556992#1 191955186#0"/>
    </vehicle>
    <vehicle id="36" type="passenger" depart="1464.00">
        <route edges="-191955244#3 -191955244#2 219397239#3 219397239#4 191955214 191955224#0 191955224#1 191955224#2 191955224#3 191955224#4 191955224#5 191955224#6 191955224#7 191955224#8 191955224#9 191955224#10 191955196#0 191955196#1 191955186#1 191955187#0 191955187#1 191955187#2 191955187#3 324668849 -508108323 365267564#1 -365266440#6 -365266440#5 -365266440#4 -365266440#3"/>
    </vehicle>
    <vehicle id="37" type="passenger" depart="1466.00">
        <route edges="508094746#0 508094746#1 508094746#2 508094746#3 508094746#4 508094746#5 508094746#6 508094746#7 191955188#0 191955188#1 191955188#2 50556992#0 -1162664417 -191955196#1 -191955196#0 -191955224#10 -191955224#9 191955197#0 191955197#1 191955197#2 -191955259#5 191955205#0 191955205#1"/>
    </vehicle>
    <vehicle id="38" type="passenger" depart="1468.00">
        <route edges="360120734#6 360120734#7 360120734#8 360120734#9 360120734#10 -360123253#0 360123251#0 360123251#1 1164004954#1 1164004955#0 -360123256 360123248#0 360123248#1 360123248#2 360123248#3 360123248#4 360123248#5 360123248#6 360123248#7 360123248#8 360123248#9 360123248#10 360123248#11 360123246#0"/>
    </vehicle>
    <vehicle id="39" type="passenger" depart="1498.00">
        <route edges="360118409#12 -360118409#12 -360118409#11 -360118409#10 -360118409#9 -360118409#8 -360118409#7 -360118409#6 -360118409#5 -360118409#4 -360118409#3 -360118409#2 -360118409#1 -360118409#0 -360121192#2 -360121192#1 664871903#7 664871903#8 664871903#9 664871903#10 664871903#11 -664871903#11"/>
    </vehicle>
    <vehicle id="40" type="passenger" depart="1517.00">
        <route edges="360118409#4 -360118409#4 -360118409#3 -360118409#2 -360118409#1 -360118409#0 -360121192#2 -360121192#1 664871903#7 664871903#8 664871903#9 664871903#10 664871903#11 664871903#12 360121197#0"/>
    </vehicle>
    <vehicle id="41" type="passenger" depart="1523.00">
        <route edges="191955211 191955202#4 191955206 191955198#0 191955198#1 191955198#2 191955231#0 191955231#1 -191955197#4 -191955197#3 -191955197#2"/>
    </vehicle>
    <vehicle id="42" type="passenger" depart="1523.00">
        <route edges="360120739#2 -360120740#2 -360120740#1 -360120740#0 -360120743#0 -1290639455#3 -1290639455#2 360121192#0 360121192#1 360121192#2 360118409#0 360118409#1 360118409#2 360118409#3 360118409#4 360121196#1 -360121196#1"/>
    </vehicle>
    <vehicle id="43" type="passenger" depart="1558.00">
        <route edges="122526504#0 -122526504#0 1167735238 1167735239 1167735240#0 1167735240#1 1167735241 458089326#0 458089326#1 1162664416 1164004955#0 -360123256 360123248#0 360123248#1 360123248#2 360123248#3 -365266458"/>
    </vehicle>
    <vehicle id="44" type="passenger" depart="1570.00">
        <route edges="191955234#2 -191955200#2 -191955200#1 -191955200#0 191955224#1 191955224#2 191955224#3 191955224#4 191955224#5 191955224#6 191955224#7 191955224#8 191955224#9 191955224#10 191955224#11 191955224#12 -750051983#3 -750051983#2 -750051983#1 360124091#0 -360124091#0"/>
    </vehicle>
    <vehicle id="45" type="passenger" depart="1609.00">
        <route edges="360121198#2 360123243#0 360123243#1 360123243#2 360123243#3 -360123247#3 -360123242#1 -360123242#0 360123240 360121195#4 -360121194#1"/>
    </vehicle>
    <vehicle id="46" type="passenger" depart="1633.00">
        <route edges="-360121199#0 360121196#5 360121202#0 360121202#1 360121202#2 -365267564#1 508108323 -324668849 191955188#0 365267572#1 365267572#2 -360124091#2 508107261"/>
    </vehicle>
    <vehicle id="47" type="passenger" depart="1717.00">
        <route edges="360121195#4 360121195#5 360121195#6 360121195#7 360121195#8 360123247#0 360123247#1 -360121200#4 -360121200#3 -360121200#2 -360121200#1 -360121200#0 360118407#0 360118407#1 360118407#2 360118407#3 664871903#12 664871903#13 191955179 191955183#0 191955183#1 -191955184#3 -191955184#2 -191955224#12 -191955224#11 -191955224#10 508112247#0 508112247#1 508112248"/>
    </vehicle>
    <vehicle id="48" type="passenger" depart="1734.00">
        <route edges="191955238#3 -340130275#1 -340130275#0 458089340#2 458089340#3 458089340#4 458089340#5 458089340#6 458089340#7 458089340#8 458089340#9 458089340#10 458089340#11 458089340#12 458089340#13 191955196#1 191955186#1 191955183#1 -191955184#3 360124089 360124088#1 360124088#2"/>
    </vehicle>
    <vehicle id="49" type="passenger" depart="1736.00">
        <route edges="-360124100#1 -360118409#7 -360118409#6 -360118409#5 -360118409#4 -360118409#3 -360118409#2 -360118409#1 -360118409#0 -360121192#2 -360121192#1 664871903#7 664871903#8 664871903#9 664871903#10 664871903#11 664871903#12 664871903#13 191955179 50556992#0 -1162664417 -191955196#1 -458089340#13 -458089340#12 -458089340#11 -458089340#10"/>
    </vehicle>
    <vehicle id="50" type="passenger" depart="1900.00">
        <route edges="360118417#1 360118418#1 360118405#1 360118419#0 360118419#1 -360118420#0 360118416#1 -360118412#4"/>
    </vehicle>
    <vehicle id="51" type="passenger" depart="1908.00">
        <route edges="360120734#7 360120734#8 360120734#9 360120734#10 360123253#1 360123253#2 508094746#0 508094746#1 508094746#2 508094746#3 508094746#4 508094746#5 508094746#6 508094746#7 191955188#0 191955188#1 191955178 -664871903#13 -664871903#12 -664871903#11 -664871903#10 -664871903#9 -664871903#8 -664871903#7 -664871903#6 -664871903#5 -664871903#4 -664871903#3"/>
    </vehicle>
    <vehicle id="52" type="passenger" depart="1960.00">
        <route edges="-664871903#2 664871903#2 664871903#3 664871903#4 664871903#5 664871903#6 664871903#7 664871903#8 664871903#9 664871903#10 664871903#11 664871903#12 664871903#13 191955179 191955183#0 191955187#0 191955187#1 191955187#2 191955187#3 -508094746#7 -508094746#6 -508094746#5 -508094746#4 -508094746#3 -508094746#2 -508094746#1 -508094746#0 -360123253#2 -360123253#1 -360123253#0 360123251#0 360123251#1 1164004954#1 1164004955#0 -360123256 360123248#0 360123248#1 360123248#2 360123248#3 360123248#4"/>
    </vehicle>
    <vehicle id="53" type="passenger" depart="1965.00">
        <route edges="-191955259#1 -191955259#0 -191955185#3 -191955185#2 -191955185#1 -191955185#0 191955186#0 191955186#1 191955187#0 191955187#1 191955187#2 191955187#3 -508094746#7 -508094746#6 -508094746#5 -508094746#4 -365267561 365267561"/>
    </vehicle>
    <vehicle id="54" type="passenger" depart="2000.00">
        <route edges="-458089340#8 -191955259#2 -191955259#1 -191955259#0 191955185#4 191955185#5 191955185#6 191955185#7 191955185#8 191955185#9 191955185#10 191955185#11 191955185#12 -191955185#12"/>
    </vehicle>
    <vehicle id="55" type="passenger" depart="2132.00">
        <route edges="360118406#6 191955250#0 191955250#1 191955250#2 -1162664417 -191955196#1 -458089340#13 -458089340#12 -458089340#11 -458089340#10 -458089340#9 -458089340#8 -458089340#7 -458089340#6 -458089340#5 -458089340#4 1167778453#0"/>
    </vehicle>
    <vehicle id="56" type="passenger" depart="2166.00">
        <route edges="-1167735237#1 1167735244#1 -1167735243#1 -360123248#10 -360123248#9 -360123248#8 -360123248#7 -360123248#6 -360123248#5 -360123248#4 -360123248#3 -360123248#2 -360123248#1 -360123248#0 360123256 1164004955#1 360123258#0 360123258#1 360123253#0 360123253#1 360123253#2 508094746#0 508094746#1 508094746#2 508094746#3 508094746#4 508094746#5 -360124092#9 -360124093#1 -508107260#1 -508107261"/>
    </vehicle>
    <vehicle id="57" type="passenger" depart="2206.00">
        <route edges="191955185#0 -191955185#0 191955186#0 -191955196#1 -191955196#0 -191955224#10 -191955224#9 -191955224#8 -191955224#7 -191955224#6 -191955224#5 -191955224#4 -191955224#3 -191955224#2 191955198#1"/>
    </vehicle>
    <vehicle id="58" type="passenger" depart="2241.00">
        <route edges="365266442#1 -365266442#1 -365266442#0"/>
    </vehicle>
    <vehicle id="59" type="passenger" depart="2244.00">
        <route edges="-191955250#0 360118406#7 360118406#8 -664871903#12 -664871903#11 -664871903#10 -664871903#9 -664871903#8 -664871903#7 360121192#1 360121192#2 360118409#0 -360118409#0"/>
    </vehicle>
    <vehicle id="60" type="passenger" depart="2246.00">
        <route edges="365267558 -365266444#0 365266440#5 365266440#6 -365267564#1 508108323 -324668849 191955188#0 191955188#1 191955188#2 50556992#0 50556992#1 191955185#0 191955185#1 191955185#2 191955185#3 191955185#4 191955185#5 191955185#6 379053386#0 379053386#1 379053386#2 508112254#1 508112256#3 1149552482#0 379053388#0 379053388#1"/>
    </vehicle>
    <vehicle id="61" type="passenger" depart="2312.00">
        <route edges="191955214 191955224#0 191955224#1 191955224#2 191955224#3 191955224#4 191955224#5 191955224#6 191955224#7 191955224#8 191955224#9 191955224#10 191955224#11 191955224#12 191955184#2 191955184#3 191955182#0 191955182#1 191955182#2 191955178 -664871903#13 360121197#0 360121197#1 360121197#2 360121198#0 360121198#1 360121198#2 360123243#0 360123243#1 360123243#2 360123243#3 360123243#4 -360123246#3 -360123246#2 -360123246#1 1167735243#0 360123248#11 360123235#0 360123235#1 -360123236#4 360123234"/>
    </vehicle>
    <vehicle id="62" type="passenger" depart="2351.00">
        <route edges="-360118409#6 -360118409#5 -360118409#4 -360118409#3 -360118409#2 -360118409#1 -360118409#0 -360121192#2 -360121192#1 664871903#7 664871903#8 664871903#9 664871903#10 664871903#11 664871903#12 664871903#13 191955179 50556992#0 50556992#1 191955185#0 191955185#1 191955185#2"/>
    </vehicle>
    <vehicle id="63" type="passenger" depart="2391.00">
        <route edges="907034606#8 907034606#9 -191955185#12 -191955185#11 -191955185#10 -191955185#9 -191955185#8 -191955185#7 -191955185#6 -191955185#5 -191955185#4 191955259#0 191955259#1 191955259#2 191955259#3 191955207 191955258#1 191955258#2 191955258#3 -191955258#3"/>
    </vehicle>
    <vehicle id="64" type="passenger" depart="2411.00">
        <route edges="360118409#4 -360118409#4 -360118409#3 -360118409#2 -360118409#1 -360118409#0 -360121192#2 -360121192#1 664871903#7 664871903#8 664871903#9 664871903#10 664871903#11 664871903#12 664871903#13 191955179 191955183#0 191955183#1 -191955184#3 -191955184#2 -750051983#3 -750051983#2 -750051983#1 -360120733#3 365267573#0 365267573#1"/>
    </vehicle>
    <vehicle id="65" type="passenger" depart="2419.00">
        <route edges="-360118405#8 -360118405#7 -360118405#6 -360118405#5 -360118405#4 -360118405#3 -360118405#2 -360118405#1 -360118405#0 664871903#11 664871903#12 360121197#0 360121197#1 360121197#2 360121198#0 360121198#1 360121198#2 360123243#0 360123243#1 360123243#2 360123243#3 360123243#4 -360123246#3 -360123246#2 -360123246#1 -360123250"/>
    </vehicle>
    <vehicle id="66" type="passenger" depart="2445.00">
        <route edges="360124086#4 360124086#5 191955177#1 191955184#0 191955184#1 191955184#2 191955184#3 191955182#0 191955182#1 191955187#1 191955187#2 191955187#3 -508094746#7 -508094746#6 -508094746#5 -508094746#4 -365267561 365267559#0 365267559#1 365267559#2 365267559#3 365267559#4 -365266440#0"/>
    </vehicle>
    <vehicle id="67" type="passenger" depart="2469.00">
        <route edges="-508112252 191955262#9 -360114360#3 -360114360#2 -360114360#1 -360114360#0 -191955259#0 -191955185#3 -191955185#2 -191955185#1 -191955185#0 191955186#0 191955186#1 191955187#0 191955182#2 191955178 -664871903#13 360121197#0 360121197#1 360121197#2 360121198#0 360121198#1 360121198#2 360123243#0 360123243#1 360123243#2 360123243#3 -360123247#3 -360123242#1 -360123242#0 360123240 360121195#4"/>
    </vehicle>
    <vehicle id="68" type="passenger" depart="2484.00">
        <route edges="360124087#1 750051983#3 -191955224#12 -191955224#11 -191955224#10 -191955224#9 191955197#0 191955197#1 191955197#2"/>
    </vehicle>
    <vehicle id="69" type="passenger" depart="2510.00">
        <route edges="-1149552487#7 1149552487#7 458089326#1 1162664416 1164004955#0 1164004955#1 360123258#0 360123258#1 360123253#0 360123253#1 360123253#2 508094746#0 508094746#1 508094746#2 508094746#3 508094746#4 508094746#5 508094746#6 508094746#7 191955188#0 191955188#1 191955188#2 50556992#0 50556992#1 191955185#0 191955185#1 191955185#2 191955185#3 191955185#4 191955185#5 191955185#6 379053386#0 379053386#1 379053386#2 508112254#1 508112256#3 1149552482#0 379053388#0 1149552480#1"/>
    </vehicle>
    <vehicle id="70" type="passenger" depart="2589.00">
        <route edges="360123232#1 -508112254#3 -508112254#2 508112256#3"/>
    </vehicle>
    <vehicle id="71" type="passenger" depart="2649.00">
        <route edges="-1290639455#0 664871903#6 360121192#1 360121192#2 360118409#0 -508108322#3"/>
    </vehicle>
    <vehicle id="72" type="passenger" depart="2695.00">
        <route edges="360118408#0 -360121192#2 -360121192#1 664871903#7 664871903#8 664871903#9 664871903#10 664871903#11 664871903#12 664871903#13"/>
    </vehicle>
    <vehicle id="73" type="passenger" depart="2702.00">
        <route edges="-360123233#0 -360121200#2 -360121200#1 -360121200#0 360118407#0 360118407#1 360118407#2 360118407#3 664871903#12 664871903#13 191955179 191955183#0 191955183#1 -191955184#3 -191955184#2 -191955184#1 -191955184#0 -191955177#1 -191955177#0 -324652637#4 -324652637#3 -324652637#2 191955246#0 -191955247#1"/>
    </vehicle>
    <vehicle id="74" type="passenger" depart="2718.00">
        <route edges="-365267566 365267565#1 360121198#2 360123243#0 360123243#1 360123243#2 360123243#3 360123243#4 360123243#5 360123245#0 360123238#0 -360123238#0"/>
    </vehicle>
    <vehicle id="75" type="passenger" depart="2768.00">
        <route edges="-458089340#12 458089340#12 458089340#13 -191955196#0 -191955224#10 -191955224#9 -191955224#8 -191955224#7 -191955224#6 -191955224#5 -191955224#4 -191955224#3 -191955224#2 -191955224#1 191955200#0"/>
    </vehicle>
    <vehicle id="76" type="passenger" depart="2793.00">
        <route edges="-191955202#2 191955202#2 191955202#3 191955202#4 191955202#5 191955202#6 360114988#0 360114988#1 360114988#2 360124078#0 360124078#1 360124078#2 -360124109 360124081#0"/>
    </vehicle>
    <vehicle id="77" type="passenger" depart="2857.00">
        <route edges="360118409#15 -360118409#15 -360118409#14 -360118409#13 -360118409#12 -360118409#11 -360118409#10 -360118409#9 -360118409#8 -360118409#7 -360118409#6 -360118409#5 -360118409#4 -360118409#3 -360118409#2 -360118409#1 -508108322#3"/>
    </vehicle>
    <vehicle id="78" type="passenger" depart="2863.00">
        <route edges="-191955243#2 191955243#2 191955184#1 191955184#2 191955184#3 191955182#0 191955182#1 191955182#2 191955188#2 50556992#0 50556992#1 191955185#0 191955185#1 191955185#2 191955185#3 191955185#4 191955185#5 191955185#6 191955185#7 191955185#8 1169375916 -907034606#7 508112256#0 508112256#1 508112256#2 -508112256#2"/>
    </vehicle>
    <vehicle id="79" type="passenger" depart="2889.00">
        <route edges="365277571 365266440#2 365266440#3 365266440#4 365266440#5 365266440#6 -365267564#1 508108323 -324668849 191955188#0 191955188#1 191955188#2 50556992#0 50556992#1 191955185#0 191955185#1 191955185#2 191955185#3 191955259#0 -360123228#1"/>
    </vehicle>
    <vehicle id="80" type="passenger" depart="2922.00">